@<TRIPOS>MOLECULE
4uxq_lig.pdb
 66 70 0 0 0
SMALL
GASTEIGER

@<TRIPOS>ATOM
      1  N1         2.9280   -0.9870    6.5170 N.ar  1752  0LI1752    -0.2334
      2  N3        -1.1290   -3.2240   21.9190 N.3   1752  0LI1752    -0.2881
      3  C4         1.3100   -3.7980   10.0600 C.1   1752  0LI1752    -0.0592
      4  C5         0.5840   -4.4930   11.0730 C.ar  1752  0LI1752     0.0289
      5  C6        -0.1620   -5.6410   10.8280 C.ar  1752  0LI1752    -0.0350
      6  C7        -0.8450   -6.2510   11.8660 C.ar  1752  0LI1752    -0.0570
      7  C8        -0.7580   -5.7500   13.1510 C.ar  1752  0LI1752    -0.0493
      8  C10        0.6510   -3.9710   12.3460 C.ar  1752  0LI1752    -0.0339
      9  C13       -0.9380   -3.8660   16.9090 C.ar  1752  0LI1752     0.0342
     10  C15       -1.3280   -4.2080   19.2150 C.ar  1752  0LI1752    -0.0551
     11  C17       -1.1570   -1.9670   18.3820 C.ar  1752  0LI1752     0.0609
     12  C20       -1.5710   -2.3360   20.8320 C.3   1752  0LI1752     0.0250
     13  C21        0.3010   -3.0080   22.2200 C.3   1752  0LI1752     0.0411
     14  C22        0.6500   -4.0100   23.2870 C.3   1752  0LI1752     0.0104
     15  C24       -2.1180   -3.1550   23.0330 C.3   1752  0LI1752     0.0411
     16  C81        5.3440   -1.4890    6.3130 C.ar  1752  0LI1752    -0.0159
     17  C82        6.3430   -2.2080    6.8350 C.ar  1752  0LI1752    -0.0384
     18  C83        5.9620   -3.0930    7.9470 C.ar  1752  0LI1752     0.0485
     19  N81        4.7760   -3.2550    8.4480 N.ar  1752  0LI1752    -0.1723
     20  N82        3.8590   -2.4990    7.8560 N.ar  1752  0LI1752    -0.2049
     21  C84        4.0460   -1.6050    6.8380 C.ar  1752  0LI1752     0.1554
     22  C1         1.9840   -1.5000    7.3660 C.ar  1752  0LI1752     0.0639
     23  C2         2.5460   -2.4440    8.1990 C.ar  1752  0LI1752     0.1356
     24  C3         1.9040   -3.2000    9.2090 C.1   1752  0LI1752    -0.0395
     25  C9        -0.0100   -4.6100   13.3690 C.ar  1752  0LI1752     0.0382
     26  C11       -0.2300   -6.2350    9.4570 C.3   1752  0LI1752    -0.0386
     27  C12        0.0990   -3.9680   14.6820 C.2   1752  0LI1752     0.2483
     28  O1         0.9150   -3.0650   14.7990 O.2   1752  0LI1752    -0.2699
     29  N2        -0.7730   -4.4400   15.6350 N.am  1752  0LI1752    -0.2815
     30  C14       -1.1070   -4.7320   17.9640 C.ar  1752  0LI1752    -0.0401
     31  C16       -1.3510   -2.8420   19.4390 C.ar  1752  0LI1752    -0.0216
     32  C18       -0.9660   -2.4990   17.1180 C.ar  1752  0LI1752    -0.0285
     33  C19       -1.1670   -0.4690   18.5630 C.3   1752  0LI1752     0.4178
     34  F1        -0.9870    0.1800   17.3880 F     1752  0LI1752    -0.1659
     35  F2        -2.2980    0.0510   19.1430 F     1752  0LI1752    -0.1659
     36  F3        -0.1470   -0.0270   19.3390 F     1752  0LI1752    -0.1659
     37  C23       -1.6400   -3.9270   24.2580 C.3   1752  0LI1752     0.0104
     38  C25        0.3200   -4.3240   25.6810 C.3   1752  0LI1752    -0.0135
     39  N4        -0.1920   -3.6560   24.4640 N.4   1752  0LI1752     0.3355
     40  H7        -1.4500   -7.1240   11.6700 H     1752  0LI1752     0.0621
     41  H8        -1.2650   -6.2410   13.9690 H     1752  0LI1752     0.0625
     42  H10        1.2160   -3.0710   12.5380 H     1752  0LI1752     0.0637
     43  H15       -1.4880   -4.8800   20.0450 H     1752  0LI1752     0.0621
     44 H201       -1.0340   -1.3930   20.9330 H     1752  0LI1752     0.0476
     45 H202       -2.6390   -2.1610   20.9580 H     1752  0LI1752     0.0476
     46 H211        0.4630   -1.9930   22.5840 H     1752  0LI1752     0.0480
     47 H212        0.9060   -3.1760   21.3290 H     1752  0LI1752     0.0480
     48 H221        1.7080   -3.9410   23.5420 H     1752  0LI1752     0.0843
     49 H222        0.4230   -5.0210   22.9480 H     1752  0LI1752     0.0843
     50 H241       -3.0630   -3.5800   22.6940 H     1752  0LI1752     0.0480
     51 H242       -2.2670   -2.1110   23.3090 H     1752  0LI1752     0.0480
     52  H81        5.5350   -0.8190    5.4880 H     1752  0LI1752     0.0655
     53  H82        7.3560   -2.1440    6.4670 H     1752  0LI1752     0.0634
     54  H83        6.7560   -3.6710    8.3950 H     1752  0LI1752     0.0847
     55  H1         0.9450   -1.2060    7.3810 H     1752  0LI1752     0.0859
     56 H111        0.3610   -5.6300    8.7690 H     1752  0LI1752     0.0278
     57 H112       -1.2670   -6.2570    9.1220 H     1752  0LI1752     0.0278
     58 H113        0.1660   -7.2500    9.4810 H     1752  0LI1752     0.0278
     59  H2        -1.3310   -5.2500   15.4060 H     1752  0LI1752     0.1551
     60  H14       -1.0670   -5.8010   17.8130 H     1752  0LI1752     0.0636
     61  H18       -0.8360   -1.8330   16.2780 H     1752  0LI1752     0.0642
     62 H231       -1.7940   -4.9950   24.1010 H     1752  0LI1752     0.0843
     63 H232       -2.2010   -3.6050   25.1350 H     1752  0LI1752     0.0843
     64 H251        1.3810   -4.1030   25.7980 H     1752  0LI1752     0.0793
     65 H252        0.1810   -5.4010   25.5900 H     1752  0LI1752     0.0793
     66 H253       -0.2250   -3.9600   26.5520 H     1752  0LI1752     0.0793
@<TRIPOS>BOND
     1    52    16    1
     2    16    17   ar
     3    16    21   ar
     4    53    17    1
     5     1    21   ar
     6     1    22   ar
     7    17    18   ar
     8    21    20   ar
     9    22    55    1
    10    22    23   ar
    11    20    23   ar
    12    20    19   ar
    13    18    54    1
    14    18    19   ar
    15    23    24    1
    16    56    26    1
    17    57    26    1
    18    24     3    3
    19    26    58    1
    20    26     5    1
    21     3     4    1
    22     5     4   ar
    23     5     6   ar
    24     4     8   ar
    25    40     6    1
    26     6     7   ar
    27     8    42    1
    28     8    25   ar
    29     7    25   ar
    30     7    41    1
    31    25    27    1
    32    27    28    2
    33    27    29   am
    34    59    29    1
    35    29     9    1
    36    61    32    1
    37     9    32   ar
    38     9    30   ar
    39    32    11   ar
    40    34    33    1
    41    60    30    1
    42    30    10   ar
    43    11    33    1
    44    11    31   ar
    45    33    35    1
    46    33    36    1
    47    10    31   ar
    48    10    43    1
    49    31    12    1
    50    12    44    1
    51    12    45    1
    52    12     2    1
    53    47    13    1
    54     2    13    1
    55     2    15    1
    56    13    46    1
    57    13    14    1
    58    50    15    1
    59    49    14    1
    60    15    51    1
    61    15    37    1
    62    14    48    1
    63    14    39    1
    64    62    37    1
    65    37    39    1
    66    37    63    1
    67    39    38    1
    68    65    38    1
    69    38    64    1
    70    38    66    1
