3-MATIDA
 OpenBabel02212023462D

 14 14  0  0  0  0  0  0  0  0999 V2000
    0.5678    1.9393    0.0000 C   0  0  0  0  0  0  0  0  0  0  0  0
    0.5678    1.1143    0.0000 C   0  0  0  0  0  0  0  0  0  0  0  0
    1.2352    0.6294    0.0000 C   0  0  0  0  0  0  0  0  0  0  0  0
    0.9803   -0.1553    0.0000 S   0  0  0  0  0  0  0  0  0  0  0  0
    0.1553   -0.1553    0.0000 C   0  0  0  0  0  0  0  0  0  0  0  0
   -0.0997    0.6294    0.0000 C   0  0  0  0  0  0  0  0  0  0  0  0
   -0.3297   -0.8227    0.0000 C   0  0  0  0  0  0  0  0  0  0  0  0
   -1.1501   -0.7365    0.0000 O   0  0  0  0  0  0  0  0  0  0  0  0
    0.0059   -1.5764    0.0000 O   0  0  0  0  0  0  0  0  0  0  0  0
    2.0198    0.8843    0.0000 C   0  0  3  0  0  0  0  0  0  0  0  0
    2.6329    0.3323    0.0000 C   0  0  0  0  0  0  0  0  0  0  0  0
    3.4175    0.5872    0.0000 O   0  0  0  0  0  0  0  0  0  0  0  0
    2.4614   -0.4747    0.0000 O   0  0  0  0  0  0  0  0  0  0  0  0
    2.1913    1.6913    0.0000 N   0  0  0  0  0  0  0  0  0  0  0  0
  1  2  1  0  0  0  0
  2  3  2  0  0  0  0
  2  6  1  0  0  0  0
  3  4  1  0  0  0  0
  3 10  1  0  0  0  0
  4  5  1  0  0  0  0
  5  6  2  0  0  0  0
  5  7  1  0  0  0  0
  7  8  2  0  0  0  0
  7  9  1  0  0  0  0
 10 11  1  0  0  0  0
 10 14  1  0  0  0  0
 11 12  2  0  0  0  0
 11 13  1  0  0  0  0
M  END
>  <CdId>
2326

>  <Formula>
C8H9NO4S

>  <ID>
T3486

>  <Name>
3-MATIDA

>  <CAS>
518357-51-2

>  <MolWt>
215.22

>  <Pathways>
Neuroscience

>  <Target>
GluR antagonist

>  <Receptor>
mGluR1

$$$$
