3-Ureidopropionic acid
 OpenBabel02212023462D

  9  8  0  0  0  0  0  0  0  0999 V2000
    1.7605    1.8414    0.0000 N   0  0  0  0  0  0  0  0  0  0  0  0
    2.4750    1.4289    0.0000 C   0  0  0  0  0  0  0  0  0  0  0  0
    2.4750    0.6039    0.0000 O   0  0  0  0  0  0  0  0  0  0  0  0
    3.1895    1.8414    0.0000 N   0  0  0  0  0  0  0  0  0  0  0  0
    3.9039    1.4289    0.0000 C   0  0  0  0  0  0  0  0  0  0  0  0
    4.6184    1.8414    0.0000 C   0  0  0  0  0  0  0  0  0  0  0  0
    5.3329    1.4289    0.0000 C   0  0  0  0  0  0  0  0  0  0  0  0
    6.0474    1.8414    0.0000 O   0  0  0  0  0  0  0  0  0  0  0  0
    5.3329    0.6039    0.0000 O   0  0  0  0  0  0  0  0  0  0  0  0
  1  2  1  0  0  0  0
  2  3  2  0  0  0  0
  2  4  1  0  0  0  0
  4  5  1  0  0  0  0
  5  6  1  0  0  0  0
  6  7  1  0  0  0  0
  7  8  1  0  0  0  0
  7  9  2  0  0  0  0
M  END
>  <CdId>
1235

>  <Formula>
C4H8N2O3

>  <ID>
T4919

>  <Name>
3-Ureidopropionic acid

>  <Synonyms>
Ureidopropionic acid; Carbamoyl-b-alanine

>  <CAS>
462-88-4

>  <MolWt>
132.12

>  <Pathways>
Metabolic Enzyme/Protease

>  <Target>
Endogenous Metabolite

>  <Receptor>
Human Endogenous Metabolite

$$$$
