Ampicillin
 OpenBabel02212023462D

 24 26  0  0  1  0  0  0  0  0999 V2000
    1.8465   -1.2111    0.0000 O   0  0  0  0  0  0  0  0  0  0  0  0
    1.0396   -1.0396    0.0000 C   0  0  0  0  0  0  0  0  0  0  0  0
    0.4875   -1.6527    0.0000 O   0  0  0  0  0  0  0  0  0  0  0  0
    0.7846   -0.2549    0.0000 C   0  0  2  0  0  0  0  0  0  0  0  0
    0.0000    0.0000    0.0000 N   0  0  0  0  0  0  0  0  0  0  0  0
   -0.8250   -0.0000    0.0000 C   0  0  0  0  0  0  0  0  0  0  0  0
   -1.4084   -0.5834    0.0000 O   0  0  0  0  0  0  0  0  0  0  0  0
   -0.8250    0.8250    0.0000 C   0  0  1  0  0  0  0  0  0  0  0  0
   -1.4084    1.4084    0.0000 N   0  0  0  0  0  0  0  0  0  0  0  0
   -1.1948    2.2053    0.0000 C   0  0  0  0  0  0  0  0  0  0  0  0
   -0.3979    2.4188    0.0000 O   0  0  0  0  0  0  0  0  0  0  0  0
   -1.7782    2.7886    0.0000 C   0  0  2  0  0  0  0  0  0  0  0  0
   -2.5751    2.5751    0.0000 N   0  0  0  0  0  0  0  0  0  0  0  0
   -1.5647    3.5855    0.0000 C   0  0  0  0  0  0  0  0  0  0  0  0
   -2.1480    4.1689    0.0000 C   0  0  0  0  0  0  0  0  0  0  0  0
   -1.9345    4.9658    0.0000 C   0  0  0  0  0  0  0  0  0  0  0  0
   -1.1376    5.1793    0.0000 C   0  0  0  0  0  0  0  0  0  0  0  0
   -0.5543    4.5959    0.0000 C   0  0  0  0  0  0  0  0  0  0  0  0
   -0.7678    3.7990    0.0000 C   0  0  0  0  0  0  0  0  0  0  0  0
   -0.0000    0.8250    0.0000 C   0  0  1  0  0  0  0  0  0  0  0  0
    0.7846    1.0799    0.0000 S   0  0  0  0  0  0  0  0  0  0  0  0
    1.2695    0.4125    0.0000 C   0  0  0  0  0  0  0  0  0  0  0  0
    1.9883    0.8175    0.0000 C   0  0  0  0  0  0  0  0  0  0  0  0
    1.9883    0.0075    0.0000 C   0  0  0  0  0  0  0  0  0  0  0  0
  1  2  1  0  0  0  0
  2  3  2  0  0  0  0
  4  2  1  6  0  0  0
  4  5  1  0  0  0  0
  4 22  1  0  0  0  0
  5  6  1  0  0  0  0
  6  7  2  0  0  0  0
  6  8  1  0  0  0  0
  8  9  1  1  0  0  0
  8 20  1  0  0  0  0
  9 10  1  0  0  0  0
 10 11  2  0  0  0  0
 10 12  1  0  0  0  0
 12 13  1  6  0  0  0
 12 14  1  0  0  0  0
 14 15  2  0  0  0  0
 14 19  1  0  0  0  0
 15 16  1  0  0  0  0
 16 17  2  0  0  0  0
 17 18  1  0  0  0  0
 18 19  2  0  0  0  0
 20  5  1  0  0  0  0
 20 21  1  1  0  0  0
 21 22  1  0  0  0  0
 22 23  1  0  0  0  0
 22 24  1  0  0  0  0
M  END
>  <CdId>
461

>  <Mol Weight>
349.405

>  <Formula>
C16H19N3O4S

>  <ID>
T0814L

>  <Name>
Ampicillin

>  <Synonyms>
Aminobenzylpenicillin;Ampicillin acid;Amcill

>  <CAS>
69-53-4

>  <Approved status>
FDA

>  <Disease>
Immune system

>  <Indication>
Infection

>  <Pathways>
Microbiology&Virology

>  <Target>
Antibacterial

>  <Receptor>
PBPs

$$$$
