BEC HCl
 OpenBabel02212023462D

 13 11  0  0  1  0  0  0  0  0999 V2000
    0.0000    0.0000    0.0000 Cl  0  0  0  0  0  0  0  0  0  0  0  0
    6.4083    1.1000    0.0000 N   0  0  0  0  0  0  0  0  0  0  0  0
    6.4083    0.2750    0.0000 C   0  0  1  0  0  0  0  0  0  0  0  0
    5.6938   -0.1375    0.0000 C   0  0  0  0  0  0  0  0  0  0  0  0
    4.9793    0.2750    0.0000 S   0  0  0  0  0  0  0  0  0  0  0  0
    4.2648   -0.1375    0.0000 C   0  0  0  0  0  0  0  0  0  0  0  0
    3.5504    0.2750    0.0000 C   0  0  0  0  0  0  0  0  0  0  0  0
    2.8359   -0.1375    0.0000 B   0  0  0  0  0  0  0  0  0  0  0  0
    2.1214    0.2750    0.0000 O   0  0  0  0  0  0  0  0  0  0  0  0
    2.8359   -0.9625    0.0000 O   0  0  0  0  0  0  0  0  0  0  0  0
    7.1227   -0.1375    0.0000 C   0  0  0  0  0  0  0  0  0  0  0  0
    7.8372    0.2750    0.0000 O   0  0  0  0  0  0  0  0  0  0  0  0
    7.1227   -0.9625    0.0000 O   0  0  0  0  0  0  0  0  0  0  0  0
  3  2  1  6  0  0  0
  3  4  1  0  0  0  0
  3 11  1  0  0  0  0
  4  5  1  0  0  0  0
  5  6  1  0  0  0  0
  6  7  1  0  0  0  0
  7  8  1  0  0  0  0
  8  9  1  0  0  0  0
  8 10  1  0  0  0  0
 11 12  1  0  0  0  0
 11 13  2  0  0  0  0
M  END
>  <CdId>
336

>  <Formula>
C5H13BClNO4S

>  <ID>
T6779

>  <Name>
BEC HCl

>  <Synonyms>
BEC hydrochloride

>  <CAS>
222638-67-7

>  <MolWt>
229.49

>  <Pathways>
Others

>  <Target>
Arginase inhibitor

>  <Receptor>
Arginase-2; rat Arginase I

$$$$
