Belnacasan
 OpenBabel02212023462D

 35 37  0  0  1  0  0  0  0  0999 V2000
   -4.7784   -4.6025    0.0000 C   0  0  0  0  0  0  0  0  0  0  0  0
   -4.0640   -5.0150    0.0000 C   0  0  0  0  0  0  0  0  0  0  0  0
   -3.3495   -4.6025    0.0000 O   0  0  0  0  0  0  0  0  0  0  0  0
   -2.6350   -5.0150    0.0000 C   0  0  1  0  0  0  0  0  0  0  0  0
   -1.8814   -4.6794    0.0000 C   0  0  2  0  0  0  0  0  0  0  0  0
   -1.3293   -5.2925    0.0000 C   0  0  0  0  0  0  0  0  0  0  0  0
   -1.7418   -6.0070    0.0000 C   0  0  0  0  0  0  0  0  0  0  0  0
   -1.4063   -6.7607    0.0000 O   0  0  0  0  0  0  0  0  0  0  0  0
   -2.5488   -5.8355    0.0000 O   0  0  0  0  0  0  0  0  0  0  0  0
   -1.7098   -3.8725    0.0000 N   0  0  0  0  0  0  0  0  0  0  0  0
   -0.9252   -3.6175    0.0000 C   0  0  0  0  0  0  0  0  0  0  0  0
   -0.3121   -4.1696    0.0000 O   0  0  0  0  0  0  0  0  0  0  0  0
   -0.7537   -2.8106    0.0000 C   0  0  2  0  0  0  0  0  0  0  0  0
   -1.3057   -2.1975    0.0000 C   0  0  0  0  0  0  0  0  0  0  0  0
   -0.8932   -1.4830    0.0000 C   0  0  0  0  0  0  0  0  0  0  0  0
   -0.0862   -1.6545    0.0000 C   0  0  0  0  0  0  0  0  0  0  0  0
    0.0000   -2.4750    0.0000 N   0  0  0  0  0  0  0  0  0  0  0  0
    0.7145   -2.8875    0.0000 C   0  0  0  0  0  0  0  0  0  0  0  0
    0.7145   -3.7125    0.0000 O   0  0  0  0  0  0  0  0  0  0  0  0
    1.4289   -2.4750    0.0000 C   0  0  2  0  0  0  0  0  0  0  0  0
    1.4289   -1.6500    0.0000 C   0  0  0  0  0  0  0  0  0  0  0  0
    2.2539   -1.6500    0.0000 C   0  0  0  0  0  0  0  0  0  0  0  0
    0.6039   -1.6500    0.0000 C   0  0  0  0  0  0  0  0  0  0  0  0
    1.4289   -0.8250    0.0000 C   0  0  0  0  0  0  0  0  0  0  0  0
    2.1434   -2.8875    0.0000 N   0  0  0  0  0  0  0  0  0  0  0  0
    2.8579   -2.4750    0.0000 C   0  0  0  0  0  0  0  0  0  0  0  0
    2.8579   -1.6500    0.0000 O   0  0  0  0  0  0  0  0  0  0  0  0
    3.5724   -2.8875    0.0000 C   0  0  0  0  0  0  0  0  0  0  0  0
    4.2868   -2.4750    0.0000 C   0  0  0  0  0  0  0  0  0  0  0  0
    5.0013   -2.8875    0.0000 C   0  0  0  0  0  0  0  0  0  0  0  0
    5.0013   -3.7125    0.0000 C   0  0  0  0  0  0  0  0  0  0  0  0
    4.2868   -4.1250    0.0000 C   0  0  0  0  0  0  0  0  0  0  0  0
    3.5724   -3.7125    0.0000 C   0  0  0  0  0  0  0  0  0  0  0  0
    5.7158   -4.1250    0.0000 N   0  0  0  0  0  0  0  0  0  0  0  0
    5.7158   -2.4750    0.0000 Cl  0  0  0  0  0  0  0  0  0  0  0  0
  1  2  1  0  0  0  0
  2  3  1  0  0  0  0
  4  3  1  1  0  0  0
  4  5  1  0  0  0  0
  4  9  1  0  0  0  0
  5  6  1  0  0  0  0
  5 10  1  1  0  0  0
  6  7  1  0  0  0  0
  7  8  2  0  0  0  0
  7  9  1  0  0  0  0
 10 11  1  0  0  0  0
 11 12  2  0  0  0  0
 13 11  1  6  0  0  0
 13 14  1  0  0  0  0
 13 17  1  0  0  0  0
 14 15  1  0  0  0  0
 15 16  1  0  0  0  0
 16 17  1  0  0  0  0
 17 18  1  0  0  0  0
 18 19  2  0  0  0  0
 20 18  1  6  0  0  0
 20 21  1  0  0  0  0
 20 25  1  0  0  0  0
 21 22  1  0  0  0  0
 21 23  1  0  0  0  0
 21 24  1  0  0  0  0
 25 26  1  0  0  0  0
 26 27  2  0  0  0  0
 26 28  1  0  0  0  0
 28 29  2  0  0  0  0
 28 33  1  0  0  0  0
 29 30  1  0  0  0  0
 30 31  2  0  0  0  0
 30 35  1  0  0  0  0
 31 32  1  0  0  0  0
 31 34  1  0  0  0  0
 32 33  2  0  0  0  0
M  END
>  <CdId>
772

>  <Formula>
C24H33ClN4O6

>  <ID>
T6090

>  <Name>
Belnacasan

>  <Synonyms>
VX-765

>  <CAS>
273404-37-8

>  <MolWt>
509.0

>  <Pathways>
Apoptosis; Proteases/Proteasome

>  <Target>
Caspase inhibitor

>  <Receptor>
Caspase-1; Caspase-4

$$$$
