Benazepril hydrochloride
 OpenBabel02212023462D

 32 33  0  0  1  0  0  0  0  0999 V2000
   -2.6662    3.1893    0.0000 C   0  0  0  0  0  0  0  0  0  0  0  0
   -2.6662    2.3643    0.0000 C   0  0  0  0  0  0  0  0  0  0  0  0
   -1.9518    1.9518    0.0000 O   0  0  0  0  0  0  0  0  0  0  0  0
   -1.9518    1.1268    0.0000 C   0  0  0  0  0  0  0  0  0  0  0  0
   -2.6662    0.7143    0.0000 O   0  0  0  0  0  0  0  0  0  0  0  0
   -1.2373    0.7143    0.0000 C   0  0  1  0  0  0  0  0  0  0  0  0
   -0.5228    1.1268    0.0000 C   0  0  0  0  0  0  0  0  0  0  0  0
   -0.5228    1.9518    0.0000 C   0  0  0  0  0  0  0  0  0  0  0  0
    0.1916    2.3643    0.0000 C   0  0  0  0  0  0  0  0  0  0  0  0
    0.1916    3.1893    0.0000 C   0  0  0  0  0  0  0  0  0  0  0  0
    0.9061    3.6018    0.0000 C   0  0  0  0  0  0  0  0  0  0  0  0
    1.6206    3.1893    0.0000 C   0  0  0  0  0  0  0  0  0  0  0  0
    1.6206    2.3643    0.0000 C   0  0  0  0  0  0  0  0  0  0  0  0
    0.9061    1.9518    0.0000 C   0  0  0  0  0  0  0  0  0  0  0  0
   -1.2373   -0.1107    0.0000 N   0  0  0  0  0  0  0  0  0  0  0  0
   -0.5228   -0.5232    0.0000 C   0  0  1  0  0  0  0  0  0  0  0  0
    0.1588   -0.0585    0.0000 C   0  0  0  0  0  0  0  0  0  0  0  0
    0.9472   -0.3017    0.0000 C   0  0  0  0  0  0  0  0  0  0  0  0
    1.2486   -1.0696    0.0000 C   0  0  0  0  0  0  0  0  0  0  0  0
    2.0736   -1.0696    0.0000 C   0  0  0  0  0  0  0  0  0  0  0  0
    2.4861   -1.7841    0.0000 C   0  0  0  0  0  0  0  0  0  0  0  0
    2.0736   -2.4986    0.0000 C   0  0  0  0  0  0  0  0  0  0  0  0
    1.2486   -2.4986    0.0000 C   0  0  0  0  0  0  0  0  0  0  0  0
    0.8361   -1.7841    0.0000 C   0  0  0  0  0  0  0  0  0  0  0  0
    0.0203   -1.9071    0.0000 N   0  0  0  0  0  0  0  0  0  0  0  0
   -0.2229   -2.6954    0.0000 C   0  0  0  0  0  0  0  0  0  0  0  0
    0.3383   -3.3002    0.0000 C   0  0  0  0  0  0  0  0  0  0  0  0
    0.0951   -4.0885    0.0000 O   0  0  0  0  0  0  0  0  0  0  0  0
    1.1426   -3.1166    0.0000 O   0  0  0  0  0  0  0  0  0  0  0  0
   -0.5845   -1.3459    0.0000 C   0  0  0  0  0  0  0  0  0  0  0  0
   -1.3525   -1.6473    0.0000 O   0  0  0  0  0  0  0  0  0  0  0  0
    4.7254    0.0000    0.0000 Cl  0  0  0  0  0  0  0  0  0  0  0  0
  1  2  1  0  0  0  0
  2  3  1  0  0  0  0
  3  4  1  0  0  0  0
  4  5  2  0  0  0  0
  4  6  1  0  0  0  0
  6  7  1  1  0  0  0
  6 15  1  0  0  0  0
  7  8  1  0  0  0  0
  8  9  1  0  0  0  0
  9 10  2  0  0  0  0
  9 14  1  0  0  0  0
 10 11  1  0  0  0  0
 11 12  2  0  0  0  0
 12 13  1  0  0  0  0
 13 14  2  0  0  0  0
 16 15  1  1  0  0  0
 16 17  1  0  0  0  0
 16 30  1  0  0  0  0
 17 18  1  0  0  0  0
 18 19  1  0  0  0  0
 19 20  2  0  0  0  0
 19 24  1  0  0  0  0
 20 21  1  0  0  0  0
 21 22  2  0  0  0  0
 22 23  1  0  0  0  0
 23 24  2  0  0  0  0
 24 25  1  0  0  0  0
 25 26  1  0  0  0  0
 25 30  1  0  0  0  0
 26 27  1  0  0  0  0
 27 28  2  0  0  0  0
 27 29  1  0  0  0  0
 30 31  2  0  0  0  0
M  END
>  <CdId>
187

>  <Mol Weight>
460.95

>  <Formula>
C24H29ClN2O5

>  <ID>
T0180

>  <Name>
Benazepril hydrochloride

>  <Synonyms>
CGS14824A

>  <CAS>
86541-74-4

>  <Approved status>
FDA

>  <Disease>
Cardiovascular system

>  <Indication>
Hypertension

>  <Pathways>
Endocrinology/Hormones

>  <Target>
RAAS inhibitor

>  <Receptor>
ACE

$$$$
