Benfluorex hydrochloride
 OpenBabel02212023462D

 26 26  0  0  0  0  0  0  0  0999 V2000
    0.0000    0.0000    0.0000 Cl  0  0  0  0  0  0  0  0  0  0  0  0
    4.9793   -0.3465    0.0000 C   0  0  0  0  0  0  0  0  0  0  0  0
    4.9793    0.4785    0.0000 C   0  0  3  0  0  0  0  0  0  0  0  0
    4.2648    0.8910    0.0000 C   0  0  0  0  0  0  0  0  0  0  0  0
    3.5504    0.4785    0.0000 C   0  0  0  0  0  0  0  0  0  0  0  0
    3.5504   -0.3465    0.0000 C   0  0  0  0  0  0  0  0  0  0  0  0
    2.8359   -0.7590    0.0000 C   0  0  0  0  0  0  0  0  0  0  0  0
    2.1214   -0.3465    0.0000 C   0  0  0  0  0  0  0  0  0  0  0  0
    2.1214    0.4785    0.0000 C   0  0  0  0  0  0  0  0  0  0  0  0
    2.8359    0.8910    0.0000 C   0  0  0  0  0  0  0  0  0  0  0  0
    2.8359   -1.5840    0.0000 C   0  0  0  0  0  0  0  0  0  0  0  0
    2.8359   -2.4090    0.0000 F   0  0  0  0  0  0  0  0  0  0  0  0
    3.6609   -1.5840    0.0000 F   0  0  0  0  0  0  0  0  0  0  0  0
    2.0109   -1.5840    0.0000 F   0  0  0  0  0  0  0  0  0  0  0  0
    5.6938    0.8910    0.0000 N   0  0  0  0  0  0  0  0  0  0  0  0
    6.4083    0.4785    0.0000 C   0  0  0  0  0  0  0  0  0  0  0  0
    7.1227    0.8910    0.0000 C   0  0  0  0  0  0  0  0  0  0  0  0
    7.8372    0.4785    0.0000 O   0  0  0  0  0  0  0  0  0  0  0  0
    8.5517    0.8910    0.0000 C   0  0  0  0  0  0  0  0  0  0  0  0
    8.5517    1.7160    0.0000 O   0  0  0  0  0  0  0  0  0  0  0  0
    9.2661    0.4785    0.0000 C   0  0  0  0  0  0  0  0  0  0  0  0
    9.9806    0.8910    0.0000 C   0  0  0  0  0  0  0  0  0  0  0  0
   10.6951    0.4785    0.0000 C   0  0  0  0  0  0  0  0  0  0  0  0
   10.6951   -0.3465    0.0000 C   0  0  0  0  0  0  0  0  0  0  0  0
    9.9806   -0.7590    0.0000 C   0  0  0  0  0  0  0  0  0  0  0  0
    9.2661   -0.3465    0.0000 C   0  0  0  0  0  0  0  0  0  0  0  0
  2  3  1  0  0  0  0
  3  4  1  0  0  0  0
  3 15  1  0  0  0  0
  4  5  1  0  0  0  0
  5  6  2  0  0  0  0
  5 10  1  0  0  0  0
  6  7  1  0  0  0  0
  7  8  2  0  0  0  0
  7 11  1  0  0  0  0
  8  9  1  0  0  0  0
  9 10  2  0  0  0  0
 11 12  1  0  0  0  0
 11 13  1  0  0  0  0
 11 14  1  0  0  0  0
 15 16  1  0  0  0  0
 16 17  1  0  0  0  0
 17 18  1  0  0  0  0
 18 19  1  0  0  0  0
 19 20  2  0  0  0  0
 19 21  1  0  0  0  0
 21 22  2  0  0  0  0
 21 26  1  0  0  0  0
 22 23  1  0  0  0  0
 23 24  2  0  0  0  0
 24 25  1  0  0  0  0
 25 26  2  0  0  0  0
M  END
>  <CdId>
4609

>  <Formula>
C19H21ClF3NO2

>  <ID>
T0919

>  <Name>
Benfluorex hydrochloride

>  <Synonyms>
Lipophoral; Mediaxal; Balans

>  <CAS>
23642-66-2

>  <MolWt>
387.82

>  <Pathways>
Others

>  <Target>
Others

>  <Receptor>
Others

$$$$
