Benurestat
 OpenBabel02212023462D

 15 15  0  0  0  0  0  0  0  0999 V2000
    0.7145   -1.2375    0.0000 C   0  0  0  0  0  0  0  0  0  0  0  0
    0.7145   -2.0625    0.0000 O   0  0  0  0  0  0  0  0  0  0  0  0
    0.0000   -0.8250    0.0000 C   0  0  0  0  0  0  0  0  0  0  0  0
   -0.7145   -1.2375    0.0000 C   0  0  0  0  0  0  0  0  0  0  0  0
   -1.4289   -0.8250    0.0000 C   0  0  0  0  0  0  0  0  0  0  0  0
   -1.4289   -0.0000    0.0000 C   0  0  0  0  0  0  0  0  0  0  0  0
   -0.7145    0.4125    0.0000 C   0  0  0  0  0  0  0  0  0  0  0  0
    0.0000   -0.0000    0.0000 C   0  0  0  0  0  0  0  0  0  0  0  0
   -2.1434    0.4125    0.0000 Cl  0  0  0  0  0  0  0  0  0  0  0  0
    1.4289   -0.8250    0.0000 N   0  0  0  0  0  0  0  0  0  0  0  0
    2.1434   -1.2375    0.0000 C   0  0  0  0  0  0  0  0  0  0  0  0
    2.8579   -0.8250    0.0000 C   0  0  0  0  0  0  0  0  0  0  0  0
    2.8579   -0.0000    0.0000 O   0  0  0  0  0  0  0  0  0  0  0  0
    3.5724   -1.2375    0.0000 N   0  0  0  0  0  0  0  0  0  0  0  0
    4.2868   -0.8250    0.0000 O   0  0  0  0  0  0  0  0  0  0  0  0
  1  2  2  0  0  0  0
  1  3  1  0  0  0  0
  1 10  1  0  0  0  0
  3  4  2  0  0  0  0
  3  8  1  0  0  0  0
  4  5  1  0  0  0  0
  5  6  2  0  0  0  0
  6  7  1  0  0  0  0
  6  9  1  0  0  0  0
  7  8  2  0  0  0  0
 10 11  1  0  0  0  0
 11 12  1  0  0  0  0
 12 13  2  0  0  0  0
 12 14  1  0  0  0  0
 14 15  1  0  0  0  0
M  END
>  <CdId>
2472

>  <Formula>
C9H9ClN2O3

>  <ID>
T3315

>  <Name>
Benurestat

>  <Synonyms>
EU-2826

>  <CAS>
38274-54-3

>  <MolWt>
228.63

>  <Pathways>
Others

>  <Target>
Others inhibitor

>  <Receptor>
urease

$$$$
