BGP-15
 OpenBabel02212023462D

 22 21  0  0  0  0  0  0  0  0999 V2000
    0.0000    0.0000    0.0000 Cl  0  0  0  0  0  0  0  0  0  0  0  0
    2.2393    0.0000    0.0000 Cl  0  0  0  0  0  0  0  0  0  0  0  0
    1.1074   -4.1250    0.0000 O   0  0  0  0  0  0  0  0  0  0  0  0
    1.1074   -3.3000    0.0000 C   0  0  3  0  0  0  0  0  0  0  0  0
    0.3930   -2.8875    0.0000 C   0  0  0  0  0  0  0  0  0  0  0  0
   -0.3215   -3.3000    0.0000 O   0  0  0  0  0  0  0  0  0  0  0  0
   -1.0360   -2.8875    0.0000 N   0  0  0  0  0  0  0  0  0  0  0  0
   -1.7505   -3.3000    0.0000 C   0  0  0  0  0  0  0  0  0  0  0  0
   -1.7505   -4.1250    0.0000 N   0  0  0  0  0  0  0  0  0  0  0  0
   -2.4649   -2.8875    0.0000 C   0  0  0  0  0  0  0  0  0  0  0  0
   -3.1794   -3.3000    0.0000 C   0  0  0  0  0  0  0  0  0  0  0  0
   -3.8939   -2.8875    0.0000 C   0  0  0  0  0  0  0  0  0  0  0  0
   -3.8939   -2.0625    0.0000 C   0  0  0  0  0  0  0  0  0  0  0  0
   -3.1794   -1.6500    0.0000 N   0  0  0  0  0  0  0  0  0  0  0  0
   -2.4649   -2.0625    0.0000 C   0  0  0  0  0  0  0  0  0  0  0  0
    1.8219   -2.8875    0.0000 C   0  0  0  0  0  0  0  0  0  0  0  0
    2.5364   -3.3000    0.0000 N   0  0  0  0  0  0  0  0  0  0  0  0
    3.2508   -2.8875    0.0000 C   0  0  0  0  0  0  0  0  0  0  0  0
    3.9653   -3.3000    0.0000 C   0  0  0  0  0  0  0  0  0  0  0  0
    3.9653   -4.1250    0.0000 C   0  0  0  0  0  0  0  0  0  0  0  0
    3.2508   -4.5375    0.0000 C   0  0  0  0  0  0  0  0  0  0  0  0
    2.5364   -4.1250    0.0000 C   0  0  0  0  0  0  0  0  0  0  0  0
  3  4  1  0  0  0  0
  4  5  1  0  0  0  0
  4 16  1  0  0  0  0
  5  6  1  0  0  0  0
  6  7  1  0  0  0  0
  7  8  1  0  0  0  0
  8  9  2  0  0  0  0
  8 10  1  0  0  0  0
 10 11  2  0  0  0  0
 10 15  1  0  0  0  0
 11 12  1  0  0  0  0
 12 13  2  0  0  0  0
 13 14  1  0  0  0  0
 14 15  2  0  0  0  0
 16 17  1  0  0  0  0
 17 18  1  0  0  0  0
 17 22  1  0  0  0  0
 18 19  1  0  0  0  0
 19 20  1  0  0  0  0
 20 21  1  0  0  0  0
 21 22  1  0  0  0  0
M  END
>  <CdId>
2190

>  <Formula>
C14H24Cl2N4O2

>  <ID>
T3649

>  <Name>
BGP-15

>  <Synonyms>
BGP 15; BGP-15; BGP-15 2HCl

>  <CAS>
66611-37-8

>  <MolWt>
351.27

>  <Pathways>
Chromatin/Epigenetic; DNA Damage/DNA Repair

>  <Target>
PARP inhibitor

>  <Receptor>
PARP

$$$$
