Bovinocidin
 OpenBabel02212023462D

  8  7  0  0  0  0  0  0  0  0999 V2000
    1.9520    1.1270    0.0000 C   0  0  0  0  0  0  0  0  0  0  0  0
    1.2375    0.7145    0.0000 C   0  0  0  0  0  0  0  0  0  0  0  0
    0.5230    1.1270    0.0000 N   0  3  0  0  0  0  0  0  0  0  0  0
   -0.1914    0.7145    0.0000 O   0  0  0  0  0  0  0  0  0  0  0  0
    0.5230    1.9520    0.0000 O   0  5  0  0  0  0  0  0  0  0  0  0
    2.6664    0.7145    0.0000 C   0  0  0  0  0  0  0  0  0  0  0  0
    3.3809    1.1270    0.0000 O   0  0  0  0  0  0  0  0  0  0  0  0
    2.6664   -0.1105    0.0000 O   0  0  0  0  0  0  0  0  0  0  0  0
  1  2  1  0  0  0  0
  1  6  1  0  0  0  0
  2  3  1  0  0  0  0
  3  4  2  0  0  0  0
  3  5  1  0  0  0  0
  6  7  2  0  0  0  0
  6  8  1  0  0  0  0
M  CHG  2   3   1   5  -1
M  END
>  <CdId>
2698

>  <Formula>
C3H5NO4

>  <ID>
T3009

>  <Name>
Bovinocidin

>  <Synonyms>
Bovinocidin; ¦Â-Nitropropionic acid; 3-NP; 3-NP acid

>  <CAS>
504-88-1

>  <MolWt>
119.08

>  <Pathways>
Metabolism

>  <Target>
Dehydrogenase

>  <Receptor>
Dehydrogenase

$$$$
