Cefcapene Pivoxil Hydrochloride
 OpenBabel02212023462D

 40 40  0  0  1  0  0  0  0  0999 V2000
    0.0000    0.0000    0.0000 O   0  0  0  0  0  0  0  0  0  0  0  0
    2.2393    0.0000    0.0000 Cl  0  0  0  0  0  0  0  0  0  0  0  0
   -3.2972   -6.4478    0.0000 C   0  0  0  0  0  0  0  0  0  0  0  0
   -3.0837   -5.6509    0.0000 C   0  0  0  0  0  0  0  0  0  0  0  0
   -3.6670   -5.0675    0.0000 C   0  0  0  0  0  0  0  0  0  0  0  0
   -3.4535   -4.2707    0.0000 C   0  0  0  0  0  0  0  0  0  0  0  0
   -2.6566   -4.0571    0.0000 C   0  0  0  0  0  0  0  0  0  0  0  0
   -2.4431   -3.2602    0.0000 O   0  0  0  0  0  0  0  0  0  0  0  0
   -2.0733   -4.6405    0.0000 N   0  0  0  0  0  0  0  0  0  0  0  0
   -1.2764   -4.4270    0.0000 C   0  0  1  0  0  0  0  0  0  0  0  0
   -0.8639   -3.7125    0.0000 C   0  0  1  0  0  0  0  0  0  0  0  0
   -0.8639   -2.8875    0.0000 S   0  0  0  0  0  0  0  0  0  0  0  0
   -0.1494   -2.4750    0.0000 C   0  0  0  0  0  0  0  0  0  0  0  0
    0.5651   -2.8875    0.0000 C   0  0  0  0  0  0  0  0  0  0  0  0
    1.2795   -2.4750    0.0000 C   0  0  0  0  0  0  0  0  0  0  0  0
    1.9940   -2.8875    0.0000 O   0  0  0  0  0  0  0  0  0  0  0  0
    2.7085   -2.4750    0.0000 C   0  0  0  0  0  0  0  0  0  0  0  0
    2.7085   -1.6500    0.0000 N   0  0  0  0  0  0  0  0  0  0  0  0
    3.4230   -2.8875    0.0000 O   0  0  0  0  0  0  0  0  0  0  0  0
    0.5651   -3.7125    0.0000 C   0  0  0  0  0  0  0  0  0  0  0  0
   -0.1494   -4.1250    0.0000 N   0  0  0  0  0  0  0  0  0  0  0  0
   -0.5619   -4.8395    0.0000 C   0  0  0  0  0  0  0  0  0  0  0  0
   -0.3484   -5.6364    0.0000 O   0  0  0  0  0  0  0  0  0  0  0  0
    1.2795   -4.1250    0.0000 C   0  0  0  0  0  0  0  0  0  0  0  0
    1.2795   -4.9500    0.0000 O   0  0  0  0  0  0  0  0  0  0  0  0
    1.9940   -3.7125    0.0000 O   0  0  0  0  0  0  0  0  0  0  0  0
    2.7085   -4.1250    0.0000 C   0  0  0  0  0  0  0  0  0  0  0  0
    3.4230   -3.7125    0.0000 O   0  0  0  0  0  0  0  0  0  0  0  0
    4.1374   -4.1250    0.0000 C   0  0  0  0  0  0  0  0  0  0  0  0
    4.1374   -4.9500    0.0000 O   0  0  0  0  0  0  0  0  0  0  0  0
    4.8519   -3.7125    0.0000 C   0  0  0  0  0  0  0  0  0  0  0  0
    5.5664   -3.3000    0.0000 C   0  0  0  0  0  0  0  0  0  0  0  0
    4.4394   -2.9980    0.0000 C   0  0  0  0  0  0  0  0  0  0  0  0
    5.2644   -4.4270    0.0000 C   0  0  0  0  0  0  0  0  0  0  0  0
   -4.0369   -3.6873    0.0000 C   0  0  0  0  0  0  0  0  0  0  0  0
   -4.8517   -3.8164    0.0000 C   0  0  0  0  0  0  0  0  0  0  0  0
   -5.2263   -3.0813    0.0000 S   0  0  0  0  0  0  0  0  0  0  0  0
   -4.6429   -2.4979    0.0000 C   0  0  0  0  0  0  0  0  0  0  0  0
   -4.7720   -1.6831    0.0000 N   0  0  0  0  0  0  0  0  0  0  0  0
   -3.9078   -2.8725    0.0000 N   0  0  0  0  0  0  0  0  0  0  0  0
  3  4  1  0  0  0  0
  4  5  1  0  0  0  0
  5  6  2  0  0  0  0
  6  7  1  0  0  0  0
  6 35  1  0  0  0  0
  7  8  2  0  0  0  0
  7  9  1  0  0  0  0
 10  9  1  1  0  0  0
 10 11  1  0  0  0  0
 10 22  1  0  0  0  0
 11 12  1  1  0  0  0
 11 21  1  0  0  0  0
 12 13  1  0  0  0  0
 13 14  1  0  0  0  0
 14 15  1  0  0  0  0
 14 20  2  0  0  0  0
 15 16  1  0  0  0  0
 16 17  1  0  0  0  0
 17 18  1  0  0  0  0
 17 19  2  0  0  0  0
 20 21  1  0  0  0  0
 20 24  1  0  0  0  0
 21 22  1  0  0  0  0
 22 23  2  0  0  0  0
 24 25  2  0  0  0  0
 24 26  1  0  0  0  0
 26 27  1  0  0  0  0
 27 28  1  0  0  0  0
 28 29  1  0  0  0  0
 29 30  2  0  0  0  0
 29 31  1  0  0  0  0
 31 32  1  0  0  0  0
 31 33  1  0  0  0  0
 31 34  1  0  0  0  0
 35 36  2  0  0  0  0
 35 40  1  0  0  0  0
 36 37  1  0  0  0  0
 37 38  1  0  0  0  0
 38 39  1  0  0  0  0
 38 40  2  0  0  0  0
M  END
>  <CdId>
1189

>  <Formula>
C23H32ClN5O9S2

>  <ID>
T4990

>  <Name>
Cefcapene Pivoxil Hydrochloride

>  <CAS>
147816-24-8

>  <MolWt>
622.12

>  <Pathways>
Microbiology&virology

>  <Target>
Antibacterial

>  <Receptor>
Antibacterial

$$$$
