Cefquinome sulfate
 OpenBabel02212023462D

 41 44  0  0  1  0  0  0  0  0999 V2000
    0.0000   -0.8250    0.0000 O   0  0  0  0  0  0  0  0  0  0  0  0
    0.0000    0.0000    0.0000 S   0  0  0  0  0  0  0  0  0  0  0  0
    0.0000    0.8250    0.0000 O   0  0  0  0  0  0  0  0  0  0  0  0
    0.8250   -0.0000    0.0000 O   0  0  0  0  0  0  0  0  0  0  0  0
   -0.8250    0.0000    0.0000 O   0  0  0  0  0  0  0  0  0  0  0  0
    3.0643   -0.1807    0.0000 C   0  0  0  0  0  0  0  0  0  0  0  0
    3.8612   -0.3942    0.0000 O   0  0  0  0  0  0  0  0  0  0  0  0
    4.0747   -1.1911    0.0000 N   0  0  0  0  0  0  0  0  0  0  0  0
    4.8716   -1.4046    0.0000 C   0  0  0  0  0  0  0  0  0  0  0  0
    5.4550   -0.8213    0.0000 C   0  0  0  0  0  0  0  0  0  0  0  0
    6.2518   -1.0348    0.0000 O   0  0  0  0  0  0  0  0  0  0  0  0
    5.2414   -0.0244    0.0000 N   0  0  0  0  0  0  0  0  0  0  0  0
    5.8248    0.5590    0.0000 C   0  0  1  0  0  0  0  0  0  0  0  0
    6.6498    0.5590    0.0000 C   0  0  1  0  0  0  0  0  0  0  0  0
    7.3643    0.1465    0.0000 S   0  0  0  0  0  0  0  0  0  0  0  0
    8.0787    0.5590    0.0000 C   0  0  0  0  0  0  0  0  0  0  0  0
    8.0787    1.3840    0.0000 C   0  0  0  0  0  0  0  0  0  0  0  0
    8.7932    1.7965    0.0000 C   0  0  0  0  0  0  0  0  0  0  0  0
    9.5077    1.3840    0.0000 N   0  3  0  0  0  0  0  0  0  0  0  0
   10.2221    1.7965    0.0000 C   0  0  0  0  0  0  0  0  0  0  0  0
   10.9366    1.3840    0.0000 C   0  0  0  0  0  0  0  0  0  0  0  0
   10.9366    0.5590    0.0000 C   0  0  0  0  0  0  0  0  0  0  0  0
   10.2221    0.1465    0.0000 C   0  0  0  0  0  0  0  0  0  0  0  0
   10.2221   -0.6785    0.0000 C   0  0  0  0  0  0  0  0  0  0  0  0
    9.5077   -1.0910    0.0000 C   0  0  0  0  0  0  0  0  0  0  0  0
    8.7932   -0.6785    0.0000 C   0  0  0  0  0  0  0  0  0  0  0  0
    8.7932    0.1465    0.0000 C   0  0  0  0  0  0  0  0  0  0  0  0
    9.5077    0.5590    0.0000 C   0  0  0  0  0  0  0  0  0  0  0  0
    7.3643    1.7965    0.0000 C   0  0  0  0  0  0  0  0  0  0  0  0
    6.6498    1.3840    0.0000 N   0  0  0  0  0  0  0  0  0  0  0  0
    5.8248    1.3840    0.0000 C   0  0  0  0  0  0  0  0  0  0  0  0
    5.2414    1.9674    0.0000 O   0  0  0  0  0  0  0  0  0  0  0  0
    7.3643    2.6215    0.0000 C   0  0  0  0  0  0  0  0  0  0  0  0
    6.6498    3.0340    0.0000 O   0  5  0  0  0  0  0  0  0  0  0  0
    8.0787    3.0340    0.0000 O   0  0  0  0  0  0  0  0  0  0  0  0
    5.0851   -2.2015    0.0000 C   0  0  0  0  0  0  0  0  0  0  0  0
    5.8553   -2.4972    0.0000 C   0  0  0  0  0  0  0  0  0  0  0  0
    5.8121   -3.3210    0.0000 S   0  0  0  0  0  0  0  0  0  0  0  0
    5.0153   -3.5346    0.0000 C   0  0  0  0  0  0  0  0  0  0  0  0
    4.7196   -4.3048    0.0000 N   0  0  0  0  0  0  0  0  0  0  0  0
    4.5659   -2.8427    0.0000 N   0  0  0  0  0  0  0  0  0  0  0  0
  1  2  1  0  0  0  0
  2  3  1  0  0  0  0
  2  4  2  0  0  0  0
  2  5  2  0  0  0  0
  6  7  1  0  0  0  0
  7  8  1  0  0  0  0
  8  9  2  0  0  0  0
  9 10  1  0  0  0  0
  9 36  1  0  0  0  0
 10 11  2  0  0  0  0
 10 12  1  0  0  0  0
 13 12  1  6  0  0  0
 13 14  1  0  0  0  0
 13 31  1  0  0  0  0
 14 15  1  6  0  0  0
 14 30  1  0  0  0  0
 15 16  1  0  0  0  0
 16 17  1  0  0  0  0
 17 18  1  0  0  0  0
 17 29  2  0  0  0  0
 18 19  1  0  0  0  0
 19 20  2  0  0  0  0
 19 28  1  0  0  0  0
 20 21  1  0  0  0  0
 21 22  2  0  0  0  0
 22 23  1  0  0  0  0
 23 24  1  0  0  0  0
 23 28  2  0  0  0  0
 24 25  1  0  0  0  0
 25 26  1  0  0  0  0
 26 27  1  0  0  0  0
 27 28  1  0  0  0  0
 29 30  1  0  0  0  0
 29 33  1  0  0  0  0
 30 31  1  0  0  0  0
 31 32  2  0  0  0  0
 33 34  1  0  0  0  0
 33 35  2  0  0  0  0
 36 37  2  0  0  0  0
 36 41  1  0  0  0  0
 37 38  1  0  0  0  0
 38 39  1  0  0  0  0
 39 40  1  0  0  0  0
 39 41  2  0  0  0  0
M  CHG  2  19   1  34  -1
M  END
>  <CdId>
1681

>  <Formula>
C23H26N6O9S3

>  <ID>
T4270

>  <Name>
Cefquinome sulfate

>  <CAS>
118443-89-3

>  <MolWt>
626.67

>  <Pathways>
Microbiology&Virology

>  <Target>
Antibacterial

>  <Receptor>
Bacterial

$$$$
