CGS 21680 HCl
 OpenBabel02212023462D

 37 39  0  0  1  0  0  0  0  0999 V2000
    0.0000    0.0000    0.0000 Cl  0  0  0  0  0  0  0  0  0  0  0  0
    2.3255   -2.5813    0.0000 C   0  0  0  0  0  0  0  0  0  0  0  0
    2.2393   -1.7608    0.0000 C   0  0  0  0  0  0  0  0  0  0  0  0
    2.9067   -1.2759    0.0000 N   0  0  0  0  0  0  0  0  0  0  0  0
    2.8205   -0.4554    0.0000 C   0  0  0  0  0  0  0  0  0  0  0  0
    2.0668   -0.1199    0.0000 O   0  0  0  0  0  0  0  0  0  0  0  0
    3.4879    0.0295    0.0000 C   0  0  1  0  0  0  0  0  0  0  0  0
    3.4879    0.8545    0.0000 O   0  0  0  0  0  0  0  0  0  0  0  0
    4.2725    1.1094    0.0000 C   0  0  2  0  0  0  0  0  0  0  0  0
    4.7575    0.4420    0.0000 C   0  0  2  0  0  0  0  0  0  0  0  0
    5.5825    0.4420    0.0000 O   0  0  0  0  0  0  0  0  0  0  0  0
    4.2725   -0.2254    0.0000 C   0  0  2  0  0  0  0  0  0  0  0  0
    4.5275   -1.0100    0.0000 O   0  0  0  0  0  0  0  0  0  0  0  0
    4.5275    1.8941    0.0000 N   0  0  0  0  0  0  0  0  0  0  0  0
    4.0426    2.5615    0.0000 C   0  0  0  0  0  0  0  0  0  0  0  0
    4.5275    3.2289    0.0000 N   0  0  0  0  0  0  0  0  0  0  0  0
    5.3121    2.9740    0.0000 C   0  0  0  0  0  0  0  0  0  0  0  0
    6.0266    3.3865    0.0000 C   0  0  0  0  0  0  0  0  0  0  0  0
    6.0266    4.2115    0.0000 N   0  0  0  0  0  0  0  0  0  0  0  0
    6.7411    2.9740    0.0000 N   0  0  0  0  0  0  0  0  0  0  0  0
    6.7411    2.1490    0.0000 C   0  0  0  0  0  0  0  0  0  0  0  0
    7.4555    1.7365    0.0000 N   0  0  0  0  0  0  0  0  0  0  0  0
    7.4555    0.9115    0.0000 C   0  0  0  0  0  0  0  0  0  0  0  0
    8.1700    0.4990    0.0000 C   0  0  0  0  0  0  0  0  0  0  0  0
    8.1700   -0.3260    0.0000 C   0  0  0  0  0  0  0  0  0  0  0  0
    8.8845   -0.7385    0.0000 C   0  0  0  0  0  0  0  0  0  0  0  0
    8.8845   -1.5635    0.0000 C   0  0  0  0  0  0  0  0  0  0  0  0
    8.1700   -1.9760    0.0000 C   0  0  0  0  0  0  0  0  0  0  0  0
    8.1700   -2.8010    0.0000 C   0  0  0  0  0  0  0  0  0  0  0  0
    8.8845   -3.2135    0.0000 C   0  0  0  0  0  0  0  0  0  0  0  0
    8.8845   -4.0385    0.0000 C   0  0  0  0  0  0  0  0  0  0  0  0
    9.5989   -4.4510    0.0000 O   0  0  0  0  0  0  0  0  0  0  0  0
    8.1700   -4.4510    0.0000 O   0  0  0  0  0  0  0  0  0  0  0  0
    7.4555   -1.5635    0.0000 C   0  0  0  0  0  0  0  0  0  0  0  0
    7.4555   -0.7385    0.0000 C   0  0  0  0  0  0  0  0  0  0  0  0
    6.0266    1.7365    0.0000 N   0  0  0  0  0  0  0  0  0  0  0  0
    5.3121    2.1490    0.0000 C   0  0  0  0  0  0  0  0  0  0  0  0
  2  3  1  0  0  0  0
  3  4  1  0  0  0  0
  4  5  1  0  0  0  0
  5  6  2  0  0  0  0
  7  5  1  1  0  0  0
  7  8  1  0  0  0  0
  7 12  1  0  0  0  0
  8  9  1  0  0  0  0
  9 10  1  0  0  0  0
  9 14  1  1  0  0  0
 10 11  1  6  0  0  0
 10 12  1  0  0  0  0
 12 13  1  6  0  0  0
 14 15  1  0  0  0  0
 14 37  1  0  0  0  0
 15 16  2  0  0  0  0
 16 17  1  0  0  0  0
 17 18  2  0  0  0  0
 17 37  1  0  0  0  0
 18 19  1  0  0  0  0
 18 20  1  0  0  0  0
 20 21  2  0  0  0  0
 21 22  1  0  0  0  0
 21 36  1  0  0  0  0
 22 23  1  0  0  0  0
 23 24  1  0  0  0  0
 24 25  1  0  0  0  0
 25 26  2  0  0  0  0
 25 35  1  0  0  0  0
 26 27  1  0  0  0  0
 27 28  2  0  0  0  0
 28 29  1  0  0  0  0
 28 34  1  0  0  0  0
 29 30  1  0  0  0  0
 30 31  1  0  0  0  0
 31 32  1  0  0  0  0
 31 33  2  0  0  0  0
 34 35  2  0  0  0  0
 36 37  2  0  0  0  0
M  END
>  <CdId>
528

>  <Formula>
C23H30ClN7O6

>  <ID>
T6441

>  <Name>
CGS 21680 HCl

>  <Synonyms>
CGS 21680 Hydrochloride

>  <CAS>
124431-80-7

>  <MolWt>
535.98

>  <Pathways>
GPCR/G Protein

>  <Target>
Adenosine Receptor agonist

>  <Receptor>
A2

$$$$
