CHIR-090
 OpenBabel02212023462D

 32 34  0  0  1  0  0  0  0  0999 V2000
    9.2881   -5.3625    0.0000 O   0  0  0  0  0  0  0  0  0  0  0  0
   10.0026   -4.9500    0.0000 N   0  0  0  0  0  0  0  0  0  0  0  0
   10.7171   -5.3625    0.0000 C   0  0  0  0  0  0  0  0  0  0  0  0
   10.7171   -6.1875    0.0000 O   0  0  0  0  0  0  0  0  0  0  0  0
   11.4315   -4.9500    0.0000 C   0  0  1  0  0  0  0  0  0  0  0  0
   12.1460   -5.3625    0.0000 N   0  0  0  0  0  0  0  0  0  0  0  0
   12.8605   -4.9500    0.0000 C   0  0  0  0  0  0  0  0  0  0  0  0
   12.8605   -4.1250    0.0000 O   0  0  0  0  0  0  0  0  0  0  0  0
   13.5749   -5.3625    0.0000 C   0  0  0  0  0  0  0  0  0  0  0  0
   14.2894   -4.9500    0.0000 C   0  0  0  0  0  0  0  0  0  0  0  0
   15.0039   -5.3625    0.0000 C   0  0  0  0  0  0  0  0  0  0  0  0
   15.0039   -6.1875    0.0000 C   0  0  0  0  0  0  0  0  0  0  0  0
   14.2894   -6.6000    0.0000 C   0  0  0  0  0  0  0  0  0  0  0  0
   13.5749   -6.1875    0.0000 C   0  0  0  0  0  0  0  0  0  0  0  0
   15.7184   -6.6000    0.0000 C   0  0  0  0  0  0  0  0  0  0  0  0
   16.4328   -7.0125    0.0000 C   0  0  0  0  0  0  0  0  0  0  0  0
   17.1473   -7.4250    0.0000 C   0  0  0  0  0  0  0  0  0  0  0  0
   17.8618   -7.0125    0.0000 C   0  0  0  0  0  0  0  0  0  0  0  0
   18.5762   -7.4250    0.0000 C   0  0  0  0  0  0  0  0  0  0  0  0
   18.5762   -8.2500    0.0000 C   0  0  0  0  0  0  0  0  0  0  0  0
   17.8618   -8.6625    0.0000 C   0  0  0  0  0  0  0  0  0  0  0  0
   17.1473   -8.2500    0.0000 C   0  0  0  0  0  0  0  0  0  0  0  0
   19.2907   -8.6625    0.0000 C   0  0  0  0  0  0  0  0  0  0  0  0
   19.2907   -9.4875    0.0000 N   0  0  0  0  0  0  0  0  0  0  0  0
   20.0052   -9.9000    0.0000 C   0  0  0  0  0  0  0  0  0  0  0  0
   20.0052  -10.7250    0.0000 C   0  0  0  0  0  0  0  0  0  0  0  0
   19.2907  -11.1375    0.0000 O   0  0  0  0  0  0  0  0  0  0  0  0
   18.5762  -10.7250    0.0000 C   0  0  0  0  0  0  0  0  0  0  0  0
   18.5762   -9.9000    0.0000 C   0  0  0  0  0  0  0  0  0  0  0  0
   11.4315   -4.1250    0.0000 C   0  0  1  0  0  0  0  0  0  0  0  0
   12.1460   -3.7125    0.0000 C   0  0  0  0  0  0  0  0  0  0  0  0
   10.7171   -3.7125    0.0000 O   0  0  0  0  0  0  0  0  0  0  0  0
  1  2  1  0  0  0  0
  2  3  1  0  0  0  0
  3  4  2  0  0  0  0
  5  3  1  6  0  0  0
  5  6  1  0  0  0  0
  5 30  1  0  0  0  0
  6  7  1  0  0  0  0
  7  8  2  0  0  0  0
  7  9  1  0  0  0  0
  9 10  2  0  0  0  0
  9 14  1  0  0  0  0
 10 11  1  0  0  0  0
 11 12  2  0  0  0  0
 12 13  1  0  0  0  0
 12 15  1  0  0  0  0
 13 14  2  0  0  0  0
 15 16  3  0  0  0  0
 16 17  1  0  0  0  0
 17 18  2  0  0  0  0
 17 22  1  0  0  0  0
 18 19  1  0  0  0  0
 19 20  2  0  0  0  0
 20 21  1  0  0  0  0
 20 23  1  0  0  0  0
 21 22  2  0  0  0  0
 23 24  1  0  0  0  0
 24 25  1  0  0  0  0
 24 29  1  0  0  0  0
 25 26  1  0  0  0  0
 26 27  1  0  0  0  0
 27 28  1  0  0  0  0
 28 29  1  0  0  0  0
 30 31  1  6  0  0  0
 30 32  1  0  0  0  0
M  END
>  <CdId>
2148

>  <Formula>
C24H27N3O5

>  <ID>
T3702

>  <Name>
CHIR-090

>  <Synonyms>
CHIR 090; CHIR-090

>  <CAS>
728865-23-4

>  <MolWt>
437.19

>  <Pathways>
Others

>  <Target>
Others inhibitor

>  <Receptor>
Escherichia coli LpxC

$$$$
