Crenigacestat
 OpenBabel02212023462D

 33 35  0  0  1  0  0  0  0  0999 V2000
    1.7807   -3.1173    0.0000 C   0  0  0  0  0  0  0  0  0  0  0  0
    1.7807   -2.2923    0.0000 C   0  0  1  0  0  0  0  0  0  0  0  0
    1.0662   -1.8798    0.0000 C   0  0  0  0  0  0  0  0  0  0  0  0
    1.0662   -1.0548    0.0000 O   0  0  0  0  0  0  0  0  0  0  0  0
    0.3517   -2.2923    0.0000 N   0  0  0  0  0  0  0  0  0  0  0  0
   -0.3627   -1.8798    0.0000 C   0  0  1  0  0  0  0  0  0  0  0  0
   -1.0444   -2.3446    0.0000 C   0  0  0  0  0  0  0  0  0  0  0  0
   -0.8608   -3.1489    0.0000 C   0  0  0  0  0  0  0  0  0  0  0  0
   -1.4656   -3.7100    0.0000 C   0  0  0  0  0  0  0  0  0  0  0  0
   -2.2539   -3.4669    0.0000 C   0  0  0  0  0  0  0  0  0  0  0  0
   -2.4375   -2.6625    0.0000 C   0  0  0  0  0  0  0  0  0  0  0  0
   -1.8327   -2.1014    0.0000 C   0  0  0  0  0  0  0  0  0  0  0  0
   -2.1341   -1.3334    0.0000 C   0  0  0  0  0  0  0  0  0  0  0  0
   -1.7216   -0.6190    0.0000 C   0  0  0  0  0  0  0  0  0  0  0  0
   -2.1341    0.0955    0.0000 N   0  0  0  0  0  0  0  0  0  0  0  0
   -2.9591    0.0955    0.0000 C   0  0  0  0  0  0  0  0  0  0  0  0
   -3.3716   -0.6190    0.0000 C   0  0  0  0  0  0  0  0  0  0  0  0
   -2.9591   -1.3334    0.0000 C   0  0  0  0  0  0  0  0  0  0  0  0
   -0.9059   -0.4960    0.0000 N   0  0  0  0  0  0  0  0  0  0  0  0
   -0.3011   -1.0571    0.0000 C   0  0  0  0  0  0  0  0  0  0  0  0
    0.4669   -0.7557    0.0000 O   0  0  0  0  0  0  0  0  0  0  0  0
   -0.6627    0.2923    0.0000 C   0  0  0  0  0  0  0  0  0  0  0  0
   -1.2238    0.8971    0.0000 C   0  0  0  0  0  0  0  0  0  0  0  0
   -0.9807    1.6855    0.0000 O   0  0  0  0  0  0  0  0  0  0  0  0
    2.4951   -1.8798    0.0000 N   0  0  0  0  0  0  0  0  0  0  0  0
    3.2096   -2.2923    0.0000 C   0  0  0  0  0  0  0  0  0  0  0  0
    3.2096   -3.1173    0.0000 O   0  0  0  0  0  0  0  0  0  0  0  0
    3.9241   -1.8798    0.0000 C   0  0  0  0  0  0  0  0  0  0  0  0
    4.6386   -2.2923    0.0000 C   0  0  0  0  0  0  0  0  0  0  0  0
    5.3530   -1.8798    0.0000 C   0  0  0  0  0  0  0  0  0  0  0  0
    6.0675   -1.4673    0.0000 F   0  0  0  0  0  0  0  0  0  0  0  0
    5.7655   -2.5943    0.0000 F   0  0  0  0  0  0  0  0  0  0  0  0
    4.9405   -1.1654    0.0000 F   0  0  0  0  0  0  0  0  0  0  0  0
  2  1  1  1  0  0  0
  2  3  1  0  0  0  0
  2 25  1  0  0  0  0
  3  4  2  0  0  0  0
  3  5  1  0  0  0  0
  6  5  1  1  0  0  0
  6  7  1  0  0  0  0
  6 20  1  0  0  0  0
  7  8  2  0  0  0  0
  7 12  1  0  0  0  0
  8  9  1  0  0  0  0
  9 10  2  0  0  0  0
 10 11  1  0  0  0  0
 11 12  2  0  0  0  0
 12 13  1  0  0  0  0
 13 14  2  0  0  0  0
 13 18  1  0  0  0  0
 14 15  1  0  0  0  0
 14 19  1  0  0  0  0
 15 16  2  0  0  0  0
 16 17  1  0  0  0  0
 17 18  2  0  0  0  0
 19 20  1  0  0  0  0
 19 22  1  0  0  0  0
 20 21  2  0  0  0  0
 22 23  1  0  0  0  0
 23 24  1  0  0  0  0
 25 26  1  0  0  0  0
 26 27  2  0  0  0  0
 26 28  1  0  0  0  0
 28 29  1  0  0  0  0
 29 30  1  0  0  0  0
 30 31  1  0  0  0  0
 30 32  1  0  0  0  0
 30 33  1  0  0  0  0
M  END
>  <CdId>
2206

>  <Formula>
C22H23F3N4O4

>  <ID>
T3633

>  <Name>
Crenigacestat

>  <Synonyms>
LY3039478

>  <CAS>
1421438-81-4

>  <MolWt>
464.44

>  <Pathways>
Neuroscience; Proteases/Proteasome; Stem Cells

>  <Target>
Gamma-secretase inhibitor

>  <Receptor>
Notch-1

$$$$
