D-Ornithine monohydrochloride
 OpenBabel02212023462D

 10  8  0  0  1  0  0  0  0  0999 V2000
    0.9526    0.1833    0.0000 C   0  0  0  0  0  0  0  0  0  0  0  0
    0.2382   -0.2292    0.0000 C   0  0  0  0  0  0  0  0  0  0  0  0
   -0.4763    0.1833    0.0000 C   0  0  2  0  0  0  0  0  0  0  0  0
   -1.1908   -0.2292    0.0000 C   0  0  0  0  0  0  0  0  0  0  0  0
   -1.9053    0.1833    0.0000 O   0  0  0  0  0  0  0  0  0  0  0  0
   -1.1908   -1.0542    0.0000 O   0  0  0  0  0  0  0  0  0  0  0  0
   -0.4763    1.0083    0.0000 N   0  0  0  0  0  0  0  0  0  0  0  0
    1.6671   -0.2292    0.0000 C   0  0  0  0  0  0  0  0  0  0  0  0
    2.3816    0.1833    0.0000 N   0  0  0  0  0  0  0  0  0  0  0  0
    4.6209    0.0000    0.0000 Cl  0  0  0  0  0  0  0  0  0  0  0  0
  1  2  1  0  0  0  0
  1  8  1  0  0  0  0
  2  3  1  0  0  0  0
  3  4  1  0  0  0  0
  3  7  1  6  0  0  0
  4  5  2  0  0  0  0
  4  6  1  0  0  0  0
  8  9  1  0  0  0  0
M  END
>  <CdId>
1531

>  <Formula>
C5H13ClN2O2

>  <ID>
T0551

>  <Name>
D-Ornithine monohydrochloride

>  <Synonyms>
D-Ornithine HCl

>  <CAS>
16682-12-5

>  <Source>
Animal

>  <category>
Others

>  <MolWt>
168.62

>  <Pathways>
Others

>  <Target>
Others

>  <Receptor>
Others

$$$$
