Dalcetrapib
 OpenBabel02212023462D

 27 28  0  0  0  0  0  0  0  0999 V2000
   -0.5943   -2.2587    0.0000 C   0  0  0  0  0  0  0  0  0  0  0  0
    0.1202   -2.6712    0.0000 C   0  0  0  0  0  0  0  0  0  0  0  0
    0.1202   -3.4962    0.0000 C   0  0  0  0  0  0  0  0  0  0  0  0
   -0.5943   -3.9087    0.0000 C   0  0  0  0  0  0  0  0  0  0  0  0
   -1.3087   -3.4962    0.0000 C   0  0  0  0  0  0  0  0  0  0  0  0
   -1.3087   -2.6712    0.0000 C   0  0  0  0  0  0  0  0  0  0  0  0
   -2.0232   -2.2587    0.0000 N   0  0  0  0  0  0  0  0  0  0  0  0
   -2.7377   -2.6712    0.0000 C   0  0  0  0  0  0  0  0  0  0  0  0
   -2.7377   -3.4962    0.0000 O   0  0  0  0  0  0  0  0  0  0  0  0
   -3.4521   -2.2587    0.0000 C   0  0  0  0  0  0  0  0  0  0  0  0
   -2.9218   -1.6267    0.0000 C   0  0  0  0  0  0  0  0  0  0  0  0
   -3.2040   -0.8515    0.0000 C   0  0  0  0  0  0  0  0  0  0  0  0
   -2.6737   -0.2195    0.0000 C   0  0  0  0  0  0  0  0  0  0  0  0
   -2.9559    0.5558    0.0000 C   0  0  0  0  0  0  0  0  0  0  0  0
   -4.0165   -0.7082    0.0000 C   0  0  0  0  0  0  0  0  0  0  0  0
   -4.2986    0.0670    0.0000 C   0  0  0  0  0  0  0  0  0  0  0  0
   -3.7343   -3.0340    0.0000 C   0  0  0  0  0  0  0  0  0  0  0  0
   -4.5468   -3.1772    0.0000 C   0  0  0  0  0  0  0  0  0  0  0  0
   -5.0771   -2.5452    0.0000 C   0  0  0  0  0  0  0  0  0  0  0  0
   -4.7949   -1.7700    0.0000 C   0  0  0  0  0  0  0  0  0  0  0  0
   -3.9824   -1.6267    0.0000 C   0  0  0  0  0  0  0  0  0  0  0  0
   -0.5943   -1.4337    0.0000 S   0  0  0  0  0  0  0  0  0  0  0  0
   -1.3087   -1.0212    0.0000 C   0  0  0  0  0  0  0  0  0  0  0  0
   -2.0232   -1.4337    0.0000 O   0  0  0  0  0  0  0  0  0  0  0  0
   -1.3087   -0.1962    0.0000 C   0  0  0  0  0  0  0  0  0  0  0  0
   -0.5943    0.2163    0.0000 C   0  0  0  0  0  0  0  0  0  0  0  0
   -2.0232    0.2163    0.0000 C   0  0  0  0  0  0  0  0  0  0  0  0
  1  2  2  0  0  0  0
  1  6  1  0  0  0  0
  1 22  1  0  0  0  0
  2  3  1  0  0  0  0
  3  4  2  0  0  0  0
  4  5  1  0  0  0  0
  5  6  2  0  0  0  0
  6  7  1  0  0  0  0
  7  8  1  0  0  0  0
  8  9  2  0  0  0  0
  8 10  1  0  0  0  0
 10 11  1  0  0  0  0
 10 17  1  0  0  0  0
 10 21  1  0  0  0  0
 11 12  1  0  0  0  0
 12 13  1  0  0  0  0
 12 15  1  0  0  0  0
 13 14  1  0  0  0  0
 15 16  1  0  0  0  0
 17 18  1  0  0  0  0
 18 19  1  0  0  0  0
 19 20  1  0  0  0  0
 20 21  1  0  0  0  0
 22 23  1  0  0  0  0
 23 24  2  0  0  0  0
 23 25  1  0  0  0  0
 25 26  1  0  0  0  0
 25 27  1  0  0  0  0
M  END
>  <CdId>
802

>  <Formula>
C23H35NO2S

>  <ID>
T6048

>  <Name>
Dalcetrapib

>  <Synonyms>
RO4607381; JTT-705

>  <CAS>
211513-37-0

>  <MolWt>
389.59

>  <Pathways>
Metabolism

>  <Target>
CETP inhibitor

>  <Receptor>
rhCETP

$$$$
