DAMGO TFA (78123-71-4(Free base))
 OpenBabel02212023462D

 44 44  0  0  1  0  0  0  0  0999 V2000
   -7.3468   -0.3106    0.0000 O   0  0  0  0  0  0  0  0  0  0  0  0
   -6.5459   -0.5088    0.0000 C   0  0  0  0  0  0  0  0  0  0  0  0
   -5.9739    0.0857    0.0000 C   0  0  0  0  0  0  0  0  0  0  0  0
   -5.1730   -0.1125    0.0000 C   0  0  0  0  0  0  0  0  0  0  0  0
   -4.9442   -0.9051    0.0000 C   0  0  0  0  0  0  0  0  0  0  0  0
   -4.1434   -1.1033    0.0000 C   0  0  0  0  0  0  0  0  0  0  0  0
   -3.5714   -0.5088    0.0000 C   0  0  2  0  0  0  0  0  0  0  0  0
   -3.8002    0.2838    0.0000 N   0  0  0  0  0  0  0  0  0  0  0  0
   -2.7705   -0.7069    0.0000 C   0  0  0  0  0  0  0  0  0  0  0  0
   -2.5417   -1.4996    0.0000 O   0  0  0  0  0  0  0  0  0  0  0  0
   -2.1985   -0.1125    0.0000 N   0  0  0  0  0  0  0  0  0  0  0  0
   -1.3976   -0.3106    0.0000 C   0  0  2  0  0  0  0  0  0  0  0  0
   -1.1688   -1.1033    0.0000 C   0  0  0  0  0  0  0  0  0  0  0  0
   -0.8256    0.2838    0.0000 C   0  0  0  0  0  0  0  0  0  0  0  0
   -1.0544    1.0765    0.0000 O   0  0  0  0  0  0  0  0  0  0  0  0
   -0.0247    0.0857    0.0000 N   0  0  0  0  0  0  0  0  0  0  0  0
    0.5473    0.6802    0.0000 C   0  0  0  0  0  0  0  0  0  0  0  0
    1.3481    0.4820    0.0000 C   0  0  0  0  0  0  0  0  0  0  0  0
    1.5770   -0.3106    0.0000 O   0  0  0  0  0  0  0  0  0  0  0  0
    1.9202    1.0765    0.0000 N   0  0  0  0  0  0  0  0  0  0  0  0
    1.6914    1.8691    0.0000 C   0  0  0  0  0  0  0  0  0  0  0  0
    2.7210    0.8783    0.0000 C   0  0  1  0  0  0  0  0  0  0  0  0
    3.2931    1.4728    0.0000 C   0  0  0  0  0  0  0  0  0  0  0  0
    4.0939    1.2746    0.0000 C   0  0  0  0  0  0  0  0  0  0  0  0
    4.6659    1.8691    0.0000 C   0  0  0  0  0  0  0  0  0  0  0  0
    5.4668    1.6710    0.0000 C   0  0  0  0  0  0  0  0  0  0  0  0
    5.6956    0.8783    0.0000 C   0  0  0  0  0  0  0  0  0  0  0  0
    5.1236    0.2838    0.0000 C   0  0  0  0  0  0  0  0  0  0  0  0
    4.3227    0.4820    0.0000 C   0  0  0  0  0  0  0  0  0  0  0  0
    2.9498    0.0857    0.0000 C   0  0  0  0  0  0  0  0  0  0  0  0
    2.3778   -0.5088    0.0000 O   0  0  0  0  0  0  0  0  0  0  0  0
    3.7507   -0.1125    0.0000 N   0  0  0  0  0  0  0  0  0  0  0  0
    3.9795   -0.9051    0.0000 C   0  0  0  0  0  0  0  0  0  0  0  0
    4.7804   -1.1033    0.0000 C   0  0  0  0  0  0  0  0  0  0  0  0
    5.0092   -1.8959    0.0000 O   0  0  0  0  0  0  0  0  0  0  0  0
   -5.5163   -1.4996    0.0000 C   0  0  0  0  0  0  0  0  0  0  0  0
   -6.3171   -1.3014    0.0000 C   0  0  0  0  0  0  0  0  0  0  0  0
    9.4670    1.0207    0.0000 F   0  0  0  0  0  0  0  0  0  0  0  0
    9.0545    0.3062    0.0000 C   0  0  0  0  0  0  0  0  0  0  0  0
    8.3401    0.7187    0.0000 F   0  0  0  0  0  0  0  0  0  0  0  0
    9.7690   -0.1063    0.0000 F   0  0  0  0  0  0  0  0  0  0  0  0
    8.6420   -0.4083    0.0000 C   0  0  0  0  0  0  0  0  0  0  0  0
    9.0545   -1.1227    0.0000 O   0  0  0  0  0  0  0  0  0  0  0  0
    7.8170   -0.4083    0.0000 O   0  0  0  0  0  0  0  0  0  0  0  0
  1  2  1  0  0  0  0
  2  3  2  0  0  0  0
  2 37  1  0  0  0  0
  3  4  1  0  0  0  0
  4  5  2  0  0  0  0
  5  6  1  0  0  0  0
  5 36  1  0  0  0  0
  6  7  1  0  0  0  0
  7  8  1  6  0  0  0
  7  9  1  0  0  0  0
  9 10  2  0  0  0  0
  9 11  1  0  0  0  0
 11 12  1  0  0  0  0
 12 13  1  1  0  0  0
 12 14  1  0  0  0  0
 14 15  2  0  0  0  0
 14 16  1  0  0  0  0
 16 17  1  0  0  0  0
 17 18  1  0  0  0  0
 18 19  2  0  0  0  0
 18 20  1  0  0  0  0
 20 21  1  0  0  0  0
 22 20  1  0  0  0  0
 22 23  1  1  0  0  0
 22 30  1  0  0  0  0
 23 24  1  0  0  0  0
 24 25  2  0  0  0  0
 24 29  1  0  0  0  0
 25 26  1  0  0  0  0
 26 27  2  0  0  0  0
 27 28  1  0  0  0  0
 28 29  2  0  0  0  0
 30 31  2  0  0  0  0
 30 32  1  0  0  0  0
 32 33  1  0  0  0  0
 33 34  1  0  0  0  0
 34 35  1  0  0  0  0
 36 37  2  0  0  0  0
 38 39  1  0  0  0  0
 39 40  1  0  0  0  0
 39 41  1  0  0  0  0
 39 42  1  0  0  0  0
 42 43  2  0  0  0  0
 42 44  1  0  0  0  0
M  END
>  <CdId>
1569

>  <Formula>
C28H36F3N5O8

>  <ID>
T4411

>  <Name>
DAMGO TFA (78123-71-4(Free base))

>  <CAS>
T4411

>  <MolWt>
627.6

>  <Pathways>
Neuroscience

>  <Target>
Opioid Receptor agonist

>  <Receptor>
¦Ì-opioid receptor

$$$$
