DL-trihexyphenidyl hydrochloride
 OpenBabel02212023462D

 23 24  0  0  0  0  0  0  0  0999 V2000
    0.0000    0.0000    0.0000 Cl  0  0  0  0  0  0  0  0  0  0  0  0
    2.1288    0.4313    0.0000 O   0  0  0  0  0  0  0  0  0  0  0  0
    2.9538    0.4313    0.0000 C   0  0  3  0  0  0  0  0  0  0  0  0
    2.9538   -0.3937    0.0000 C   0  0  0  0  0  0  0  0  0  0  0  0
    3.6682   -0.8062    0.0000 C   0  0  0  0  0  0  0  0  0  0  0  0
    3.6682   -1.6312    0.0000 N   0  0  0  0  0  0  0  0  0  0  0  0
    4.3827   -2.0438    0.0000 C   0  0  0  0  0  0  0  0  0  0  0  0
    4.3827   -2.8688    0.0000 C   0  0  0  0  0  0  0  0  0  0  0  0
    3.6682   -3.2813    0.0000 C   0  0  0  0  0  0  0  0  0  0  0  0
    2.9538   -2.8688    0.0000 C   0  0  0  0  0  0  0  0  0  0  0  0
    2.9538   -2.0438    0.0000 C   0  0  0  0  0  0  0  0  0  0  0  0
    2.9538    1.2563    0.0000 C   0  0  0  0  0  0  0  0  0  0  0  0
    2.2393    1.6688    0.0000 C   0  0  0  0  0  0  0  0  0  0  0  0
    2.2393    2.4938    0.0000 C   0  0  0  0  0  0  0  0  0  0  0  0
    2.9538    2.9063    0.0000 C   0  0  0  0  0  0  0  0  0  0  0  0
    3.6682    2.4938    0.0000 C   0  0  0  0  0  0  0  0  0  0  0  0
    3.6682    1.6688    0.0000 C   0  0  0  0  0  0  0  0  0  0  0  0
    3.7788    0.4312    0.0000 C   0  0  0  0  0  0  0  0  0  0  0  0
    4.1913    1.1457    0.0000 C   0  0  0  0  0  0  0  0  0  0  0  0
    5.0163    1.1457    0.0000 C   0  0  0  0  0  0  0  0  0  0  0  0
    5.4288    0.4312    0.0000 C   0  0  0  0  0  0  0  0  0  0  0  0
    5.0163   -0.2832    0.0000 C   0  0  0  0  0  0  0  0  0  0  0  0
    4.1913   -0.2832    0.0000 C   0  0  0  0  0  0  0  0  0  0  0  0
  2  3  1  0  0  0  0
  3  4  1  0  0  0  0
  3 12  1  0  0  0  0
  3 18  1  0  0  0  0
  4  5  1  0  0  0  0
  5  6  1  0  0  0  0
  6  7  1  0  0  0  0
  6 11  1  0  0  0  0
  7  8  1  0  0  0  0
  8  9  1  0  0  0  0
  9 10  1  0  0  0  0
 10 11  1  0  0  0  0
 12 13  1  0  0  0  0
 12 17  1  0  0  0  0
 13 14  1  0  0  0  0
 14 15  1  0  0  0  0
 15 16  1  0  0  0  0
 16 17  1  0  0  0  0
 18 19  2  0  0  0  0
 18 23  1  0  0  0  0
 19 20  1  0  0  0  0
 20 21  2  0  0  0  0
 21 22  1  0  0  0  0
 22 23  2  0  0  0  0
M  END
>  <CdId>
764

>  <Mol Weight>
337.927

>  <Formula>
C20H32ClNO

>  <ID>
T1328

>  <Name>
DL-trihexyphenidyl hydrochloride

>  <Synonyms>
Artane;Trihexyphenidyl HCl;Tremin

>  <CAS>
58947-95-8

>  <Approved status>
FDA

>  <Disease>
Nervous system

>  <Indication>
Parkinsonian

>  <Pathways>
Neuroscience

>  <Target>
AChR antagonist

>  <Receptor>
mAChR

$$$$
