Eltrombopag Olamine
 OpenBabel02212023462D

 41 42  0  0  0  0  0  0  0  0999 V2000
    1.0312   -0.3572    0.0000 N   0  0  0  0  0  0  0  0  0  0  0  0
    0.2062   -0.3572    0.0000 C   0  0  0  0  0  0  0  0  0  0  0  0
   -0.2062    0.3572    0.0000 C   0  0  0  0  0  0  0  0  0  0  0  0
   -1.0312    0.3572    0.0000 O   0  0  0  0  0  0  0  0  0  0  0  0
    5.2152   -0.3572    0.0000 N   0  0  0  0  0  0  0  0  0  0  0  0
    4.3902   -0.3572    0.0000 C   0  0  0  0  0  0  0  0  0  0  0  0
    3.9777    0.3572    0.0000 C   0  0  0  0  0  0  0  0  0  0  0  0
    3.1527    0.3572    0.0000 O   0  0  0  0  0  0  0  0  0  0  0  0
    1.5249   -5.2420    0.0000 C   0  0  0  0  0  0  0  0  0  0  0  0
    1.5249   -6.0670    0.0000 C   0  0  0  0  0  0  0  0  0  0  0  0
    2.1923   -6.5520    0.0000 N   0  0  0  0  0  0  0  0  0  0  0  0
    1.9374   -7.3366    0.0000 N   0  0  0  0  0  0  0  0  0  0  0  0
    1.1124   -7.3366    0.0000 C   0  0  0  0  0  0  0  0  0  0  0  0
    0.6275   -8.0040    0.0000 O   0  0  0  0  0  0  0  0  0  0  0  0
    0.8574   -6.5520    0.0000 C   0  0  0  0  0  0  0  0  0  0  0  0
    0.0728   -6.2970    0.0000 N   0  0  0  0  0  0  0  0  0  0  0  0
   -0.5403   -6.8491    0.0000 N   0  0  0  0  0  0  0  0  0  0  0  0
   -1.3249   -6.5941    0.0000 C   0  0  0  0  0  0  0  0  0  0  0  0
   -1.9380   -7.1462    0.0000 C   0  0  0  0  0  0  0  0  0  0  0  0
   -2.7226   -6.8912    0.0000 C   0  0  0  0  0  0  0  0  0  0  0  0
   -2.8941   -6.0842    0.0000 C   0  0  0  0  0  0  0  0  0  0  0  0
   -2.2810   -5.5322    0.0000 C   0  0  0  0  0  0  0  0  0  0  0  0
   -2.4526   -4.7252    0.0000 C   0  0  0  0  0  0  0  0  0  0  0  0
   -3.2372   -4.4703    0.0000 C   0  0  0  0  0  0  0  0  0  0  0  0
   -3.4087   -3.6633    0.0000 C   0  0  0  0  0  0  0  0  0  0  0  0
   -2.7956   -3.1113    0.0000 C   0  0  0  0  0  0  0  0  0  0  0  0
   -2.0110   -3.3662    0.0000 C   0  0  0  0  0  0  0  0  0  0  0  0
   -1.8395   -4.1732    0.0000 C   0  0  0  0  0  0  0  0  0  0  0  0
   -1.3979   -2.8142    0.0000 C   0  0  0  0  0  0  0  0  0  0  0  0
   -1.5694   -2.0072    0.0000 O   0  0  0  0  0  0  0  0  0  0  0  0
   -0.6133   -3.0691    0.0000 O   0  0  0  0  0  0  0  0  0  0  0  0
   -1.4964   -5.7872    0.0000 C   0  0  0  0  0  0  0  0  0  0  0  0
   -0.8833   -5.2351    0.0000 O   0  0  0  0  0  0  0  0  0  0  0  0
    2.4223   -8.0040    0.0000 C   0  0  0  0  0  0  0  0  0  0  0  0
    3.2428   -7.9178    0.0000 C   0  0  0  0  0  0  0  0  0  0  0  0
    3.7277   -8.5852    0.0000 C   0  0  0  0  0  0  0  0  0  0  0  0
    3.3921   -9.3389    0.0000 C   0  0  0  0  0  0  0  0  0  0  0  0
    3.8771  -10.0064    0.0000 C   0  0  0  0  0  0  0  0  0  0  0  0
    2.5717   -9.4251    0.0000 C   0  0  0  0  0  0  0  0  0  0  0  0
    2.2361  -10.1788    0.0000 C   0  0  0  0  0  0  0  0  0  0  0  0
    2.0867   -8.7577    0.0000 C   0  0  0  0  0  0  0  0  0  0  0  0
  1  2  1  0  0  0  0
  2  3  1  0  0  0  0
  3  4  1  0  0  0  0
  5  6  1  0  0  0  0
  6  7  1  0  0  0  0
  7  8  1  0  0  0  0
  9 10  1  0  0  0  0
 10 11  2  0  0  0  0
 10 15  1  0  0  0  0
 11 12  1  0  0  0  0
 12 13  1  0  0  0  0
 12 34  1  0  0  0  0
 13 14  2  0  0  0  0
 13 15  1  0  0  0  0
 15 16  2  0  0  0  0
 16 17  1  0  0  0  0
 17 18  1  0  0  0  0
 18 19  2  0  0  0  0
 18 32  1  0  0  0  0
 19 20  1  0  0  0  0
 20 21  2  0  0  0  0
 21 22  1  0  0  0  0
 22 23  1  0  0  0  0
 22 32  2  0  0  0  0
 23 24  2  0  0  0  0
 23 28  1  0  0  0  0
 24 25  1  0  0  0  0
 25 26  2  0  0  0  0
 26 27  1  0  0  0  0
 27 28  2  0  0  0  0
 27 29  1  0  0  0  0
 29 30  1  0  0  0  0
 29 31  2  0  0  0  0
 32 33  1  0  0  0  0
 34 35  2  0  0  0  0
 34 41  1  0  0  0  0
 35 36  1  0  0  0  0
 36 37  2  0  0  0  0
 37 38  1  0  0  0  0
 37 39  1  0  0  0  0
 39 40  1  0  0  0  0
 39 41  2  0  0  0  0
M  END
>  <CdId>
309

>  <Formula>
C29H36N6O6

>  <ID>
T6825

>  <Name>
Eltrombopag Olamine

>  <Synonyms>
SB-497115GR; Eltrombopag diethanolamine salt; SB497115; Promacta Olamine; Revolade

>  <CAS>
496775-62-3

>  <MolWt>
564.63

>  <Pathways>
Others

>  <Target>
Thrombin agonist

>  <Receptor>
Thrombopoietin receptor

$$$$
