Epoxomicin
 OpenBabel02212023462D

 39 39  0  0  1  0  0  0  0  0999 V2000
   10.2990   -5.8989    0.0000 C   0  0  0  0  0  0  0  0  0  0  0  0
    9.9712   -5.1418    0.0000 C   0  0  0  0  0  0  0  0  0  0  0  0
   10.4629   -4.4793    0.0000 C   0  0  2  0  0  0  0  0  0  0  0  0
   11.2825   -4.5740    0.0000 C   0  0  0  0  0  0  0  0  0  0  0  0
   10.1351   -3.7223    0.0000 C   0  0  2  0  0  0  0  0  0  0  0  0
    9.3155   -3.6276    0.0000 N   0  0  0  0  0  0  0  0  0  0  0  0
    8.8238   -4.2901    0.0000 C   0  0  0  0  0  0  0  0  0  0  0  0
    9.1516   -5.0471    0.0000 O   0  0  0  0  0  0  0  0  0  0  0  0
    8.0043   -4.1954    0.0000 C   0  0  2  0  0  0  0  0  0  0  0  0
    7.5125   -4.8579    0.0000 C   0  0  1  0  0  0  0  0  0  0  0  0
    6.6930   -4.7632    0.0000 C   0  0  0  0  0  0  0  0  0  0  0  0
    7.8403   -5.6149    0.0000 C   0  0  0  0  0  0  0  0  0  0  0  0
    8.6599   -5.7096    0.0000 C   0  0  0  0  0  0  0  0  0  0  0  0
    7.6764   -3.4384    0.0000 N   0  0  0  0  0  0  0  0  0  0  0  0
    8.1682   -2.7759    0.0000 C   0  0  0  0  0  0  0  0  0  0  0  0
    6.8569   -3.3437    0.0000 C   0  0  0  0  0  0  0  0  0  0  0  0
    6.3651   -4.0062    0.0000 C   0  0  0  0  0  0  0  0  0  0  0  0
    6.5291   -2.5867    0.0000 O   0  0  0  0  0  0  0  0  0  0  0  0
   10.6268   -3.0598    0.0000 C   0  0  0  0  0  0  0  0  0  0  0  0
   10.2990   -2.3028    0.0000 O   0  0  0  0  0  0  0  0  0  0  0  0
   11.4464   -3.1545    0.0000 N   0  0  0  0  0  0  0  0  0  0  0  0
   11.9381   -2.4920    0.0000 C   0  0  1  0  0  0  0  0  0  0  0  0
   11.6103   -1.7350    0.0000 C   0  0  1  0  0  0  0  0  0  0  0  0
   12.1020   -1.0725    0.0000 C   0  0  0  0  0  0  0  0  0  0  0  0
   10.7907   -1.6403    0.0000 O   0  0  0  0  0  0  0  0  0  0  0  0
   12.7577   -2.5867    0.0000 C   0  0  0  0  0  0  0  0  0  0  0  0
   13.0855   -3.3437    0.0000 O   0  0  0  0  0  0  0  0  0  0  0  0
   13.2494   -1.9242    0.0000 N   0  0  0  0  0  0  0  0  0  0  0  0
   14.0690   -2.0189    0.0000 C   0  0  1  0  0  0  0  0  0  0  0  0
   14.3968   -2.7759    0.0000 C   0  0  0  0  0  0  0  0  0  0  0  0
   13.9050   -3.4384    0.0000 C   0  0  0  0  0  0  0  0  0  0  0  0
   14.2329   -4.1954    0.0000 C   0  0  0  0  0  0  0  0  0  0  0  0
   13.1864   -3.8435    0.0000 C   0  0  0  0  0  0  0  0  0  0  0  0
   14.5607   -1.3564    0.0000 C   0  0  0  0  0  0  0  0  0  0  0  0
   14.2329   -0.5993    0.0000 O   0  0  0  0  0  0  0  0  0  0  0  0
   15.3802   -1.4511    0.0000 C   0  0  1  0  0  0  0  0  0  0  0  0
   15.4294   -2.2746    0.0000 C   0  0  0  0  0  0  0  0  0  0  0  0
   15.6158   -0.6604    0.0000 C   0  0  0  0  0  0  0  0  0  0  0  0
   16.1827   -1.2597    0.0000 O   0  0  0  0  0  0  0  0  0  0  0  0
  1  2  1  0  0  0  0
  2  3  1  0  0  0  0
  3  4  1  1  0  0  0
  3  5  1  0  0  0  0
  5  6  1  6  0  0  0
  5 19  1  0  0  0  0
  6  7  1  0  0  0  0
  7  8  2  0  0  0  0
  9  7  1  6  0  0  0
  9 10  1  0  0  0  0
  9 14  1  0  0  0  0
 10 11  1  6  0  0  0
 10 12  1  0  0  0  0
 12 13  1  0  0  0  0
 14 15  1  0  0  0  0
 14 16  1  0  0  0  0
 16 17  1  0  0  0  0
 16 18  2  0  0  0  0
 19 20  2  0  0  0  0
 19 21  1  0  0  0  0
 22 21  1  1  0  0  0
 22 23  1  0  0  0  0
 22 26  1  0  0  0  0
 23 24  1  6  0  0  0
 23 25  1  0  0  0  0
 26 27  2  0  0  0  0
 26 28  1  0  0  0  0
 29 28  1  0  0  0  0
 29 30  1  6  0  0  0
 29 34  1  0  0  0  0
 30 31  1  0  0  0  0
 31 32  1  0  0  0  0
 31 33  1  0  0  0  0
 34 35  2  0  0  0  0
 36 34  1  0  0  0  0
 36 37  1  6  0  0  0
 36 38  1  0  0  0  0
 36 39  1  0  0  0  0
 38 39  1  0  0  0  0
M  END
>  <CdId>
307

>  <Formula>
C28H50N4O7

>  <ID>
T6830

>  <Name>
Epoxomicin

>  <Synonyms>
BU-4061T; BU-4061T,Aids010837

>  <CAS>
134381-21-8

>  <MolWt>
554.72

>  <Pathways>
Proteases/Proteasome; Ubiquitination

>  <Target>
Proteasome inhibitor

>  <Receptor>
20S proteasome

$$$$
