Fluoxetine hydrochloride
 OpenBabel02212023462D

 23 23  0  0  0  0  0  0  0  0999 V2000
    0.0000    0.0000    0.0000 Cl  0  0  0  0  0  0  0  0  0  0  0  0
    2.2393    0.7500    0.0000 C   0  0  0  0  0  0  0  0  0  0  0  0
    2.9538    1.1625    0.0000 N   0  0  0  0  0  0  0  0  0  0  0  0
    3.6682    0.7500    0.0000 C   0  0  0  0  0  0  0  0  0  0  0  0
    4.3827    1.1625    0.0000 C   0  0  0  0  0  0  0  0  0  0  0  0
    5.0972    0.7500    0.0000 C   0  0  3  0  0  0  0  0  0  0  0  0
    5.8116    1.1625    0.0000 O   0  0  0  0  0  0  0  0  0  0  0  0
    6.5261    0.7500    0.0000 C   0  0  0  0  0  0  0  0  0  0  0  0
    7.2406    1.1625    0.0000 C   0  0  0  0  0  0  0  0  0  0  0  0
    7.9551    0.7500    0.0000 C   0  0  0  0  0  0  0  0  0  0  0  0
    7.9551   -0.0750    0.0000 C   0  0  0  0  0  0  0  0  0  0  0  0
    7.2406   -0.4875    0.0000 C   0  0  0  0  0  0  0  0  0  0  0  0
    6.5261   -0.0750    0.0000 C   0  0  0  0  0  0  0  0  0  0  0  0
    8.6695   -0.4875    0.0000 C   0  0  0  0  0  0  0  0  0  0  0  0
    9.3840   -0.9000    0.0000 F   0  0  0  0  0  0  0  0  0  0  0  0
    8.2570   -1.2020    0.0000 F   0  0  0  0  0  0  0  0  0  0  0  0
    9.0820    0.2270    0.0000 F   0  0  0  0  0  0  0  0  0  0  0  0
    5.0972   -0.0750    0.0000 C   0  0  0  0  0  0  0  0  0  0  0  0
    5.8116   -0.4875    0.0000 C   0  0  0  0  0  0  0  0  0  0  0  0
    5.8116   -1.3125    0.0000 C   0  0  0  0  0  0  0  0  0  0  0  0
    5.0972   -1.7250    0.0000 C   0  0  0  0  0  0  0  0  0  0  0  0
    4.3827   -1.3125    0.0000 C   0  0  0  0  0  0  0  0  0  0  0  0
    4.3827   -0.4875    0.0000 C   0  0  0  0  0  0  0  0  0  0  0  0
  2  3  1  0  0  0  0
  3  4  1  0  0  0  0
  4  5  1  0  0  0  0
  5  6  1  0  0  0  0
  6  7  1  0  0  0  0
  6 18  1  0  0  0  0
  7  8  1  0  0  0  0
  8  9  2  0  0  0  0
  8 13  1  0  0  0  0
  9 10  1  0  0  0  0
 10 11  2  0  0  0  0
 11 12  1  0  0  0  0
 11 14  1  0  0  0  0
 12 13  2  0  0  0  0
 14 15  1  0  0  0  0
 14 16  1  0  0  0  0
 14 17  1  0  0  0  0
 18 19  2  0  0  0  0
 18 23  1  0  0  0  0
 19 20  1  0  0  0  0
 20 21  2  0  0  0  0
 21 22  1  0  0  0  0
 22 23  2  0  0  0  0
M  END
>  <CdId>
328

>  <Mol Weight>
345.787

>  <Formula>
C17H19ClF3NO

>  <ID>
T0450L

>  <Name>
Fluoxetine hydrochloride

>  <Synonyms>
LY-110140

>  <CAS>
56296-78-7

>  <Approved status>
FDA

>  <Disease>
Nervous system

>  <Indication>
Depressive Disorder; Bulimia

>  <Pathways>
GPCR/G Protein; Neuroscience

>  <Target>
5-HT Receptor antagonist

>  <Receptor>
5-HT; Sert (Sodium-dependent)

$$$$
