Fosfomycin Tromethamine
 OpenBabel02212023462D

 16 15  0  0  1  0  0  0  0  0999 V2000
    0.6528    1.5155    0.0000 C   0  0  0  0  0  0  0  0  0  0  0  0
    0.6528    0.6905    0.0000 C   0  0  2  0  0  0  0  0  0  0  0  0
    1.0653   -0.0239    0.0000 O   0  0  0  0  0  0  0  0  0  0  0  0
    0.2403   -0.0239    0.0000 C   0  0  2  0  0  0  0  0  0  0  0  0
   -0.4742   -0.4364    0.0000 P   0  0  0  0  0  0  0  0  0  0  0  0
   -1.1886   -0.8489    0.0000 O   0  0  0  0  0  0  0  0  0  0  0  0
   -0.8867    0.2780    0.0000 O   0  0  0  0  0  0  0  0  0  0  0  0
   -0.0617   -1.1509    0.0000 O   0  0  0  0  0  0  0  0  0  0  0  0
    5.0282    0.8038    0.0000 N   0  0  0  0  0  0  0  0  0  0  0  0
    4.6157    0.0893    0.0000 C   0  0  0  0  0  0  0  0  0  0  0  0
    3.9012    0.5018    0.0000 C   0  0  0  0  0  0  0  0  0  0  0  0
    3.1867    0.0893    0.0000 O   0  0  0  0  0  0  0  0  0  0  0  0
    5.3301   -0.3232    0.0000 C   0  0  0  0  0  0  0  0  0  0  0  0
    6.0446    0.0893    0.0000 O   0  0  0  0  0  0  0  0  0  0  0  0
    4.2032   -0.6252    0.0000 C   0  0  0  0  0  0  0  0  0  0  0  0
    3.3782   -0.6252    0.0000 O   0  0  0  0  0  0  0  0  0  0  0  0
  2  1  1  6  0  0  0
  2  3  1  0  0  0  0
  2  4  1  0  0  0  0
  3  4  1  0  0  0  0
  4  5  1  6  0  0  0
  5  6  1  0  0  0  0
  5  7  1  0  0  0  0
  5  8  2  0  0  0  0
  9 10  1  0  0  0  0
 10 11  1  0  0  0  0
 10 13  1  0  0  0  0
 10 15  1  0  0  0  0
 11 12  1  0  0  0  0
 13 14  1  0  0  0  0
 15 16  1  0  0  0  0
M  END
>  <CdId>
1190

>  <Formula>
C7H18NO7P

>  <ID>
T4989

>  <Name>
Fosfomycin Tromethamine

>  <CAS>
78964-85-9

>  <MolWt>
259.19

>  <Pathways>
Others

>  <Target>
Others

>  <Receptor>
Others

$$$$
