Furaltadone hydrochloride
 OpenBabel02212023462D

 24 25  0  0  1  0  0  0  0  0999 V2000
    0.0000    0.0000    0.0000 Cl  0  0  0  0  0  0  0  0  0  0  0  0
    6.5565    4.2929    0.0000 O   0  5  0  0  0  0  0  0  0  0  0  0
    5.8420    3.8804    0.0000 N   0  3  0  0  0  0  0  0  0  0  0  0
    5.1275    4.2929    0.0000 O   0  0  0  0  0  0  0  0  0  0  0  0
    5.8420    3.0554    0.0000 C   0  0  0  0  0  0  0  0  0  0  0  0
    6.5094    2.5705    0.0000 C   0  0  0  0  0  0  0  0  0  0  0  0
    6.2545    1.7859    0.0000 C   0  0  0  0  0  0  0  0  0  0  0  0
    5.4295    1.7859    0.0000 C   0  0  0  0  0  0  0  0  0  0  0  0
    5.1745    2.5705    0.0000 O   0  0  0  0  0  0  0  0  0  0  0  0
    4.9446    1.1185    0.0000 C   0  0  0  0  0  0  0  0  0  0  0  0
    5.2801    0.3648    0.0000 N   0  0  0  0  0  0  0  0  0  0  0  0
    4.7952   -0.3027    0.0000 N   0  0  0  0  0  0  0  0  0  0  0  0
    5.0501   -1.0873    0.0000 C   0  0  0  0  0  0  0  0  0  0  0  0
    4.3827   -1.5722    0.0000 C   0  0  1  0  0  0  0  0  0  0  0  0
    4.3827   -2.3972    0.0000 C   0  0  0  0  0  0  0  0  0  0  0  0
    3.6682   -2.8097    0.0000 N   0  0  0  0  0  0  0  0  0  0  0  0
    3.6682   -3.6347    0.0000 C   0  0  0  0  0  0  0  0  0  0  0  0
    2.9538   -4.0472    0.0000 C   0  0  0  0  0  0  0  0  0  0  0  0
    2.2393   -3.6347    0.0000 O   0  0  0  0  0  0  0  0  0  0  0  0
    2.2393   -2.8097    0.0000 C   0  0  0  0  0  0  0  0  0  0  0  0
    2.9538   -2.3972    0.0000 C   0  0  0  0  0  0  0  0  0  0  0  0
    3.7153   -1.0873    0.0000 O   0  0  0  0  0  0  0  0  0  0  0  0
    3.9702   -0.3027    0.0000 C   0  0  0  0  0  0  0  0  0  0  0  0
    3.4853    0.3648    0.0000 O   0  0  0  0  0  0  0  0  0  0  0  0
  2  3  1  0  0  0  0
  3  4  2  0  0  0  0
  3  5  1  0  0  0  0
  5  6  2  0  0  0  0
  5  9  1  0  0  0  0
  6  7  1  0  0  0  0
  7  8  2  0  0  0  0
  8  9  1  0  0  0  0
  8 10  1  0  0  0  0
 10 11  2  0  0  0  0
 11 12  1  0  0  0  0
 12 13  1  0  0  0  0
 12 23  1  0  0  0  0
 13 14  1  0  0  0  0
 14 15  1  1  0  0  0
 14 22  1  0  0  0  0
 15 16  1  0  0  0  0
 16 17  1  0  0  0  0
 16 21  1  0  0  0  0
 17 18  1  0  0  0  0
 18 19  1  0  0  0  0
 19 20  1  0  0  0  0
 20 21  1  0  0  0  0
 22 23  1  0  0  0  0
 23 24  2  0  0  0  0
M  CHG  2   2  -1   3   1
M  END
>  <CdId>
1529

>  <Mol Weight>
360.75

>  <Formula>
C13H17ClN4O6

>  <ID>
T0896

>  <Name>
Furaltadone hydrochloride

>  <Synonyms>
Furaltadone HCl

>  <CAS>
3759-92-0

>  <Approved status>
Other countries

>  <Disease>
Immune system

>  <Indication>
Urinary?Tract?Infection

>  <Pathways>
Microbiology&Virology

>  <Target>
Antibiotic

>  <Receptor>
Antibiotic

$$$$
