GGTI 298
 OpenBabel02212023462D

 41 42  0  0  1  0  0  0  0  0999 V2000
   -0.7145   -0.8839    0.0000 O   0  0  0  0  0  0  0  0  0  0  0  0
    0.0000   -0.4714    0.0000 C   0  0  0  0  0  0  0  0  0  0  0  0
    0.7145   -0.8839    0.0000 O   0  0  0  0  0  0  0  0  0  0  0  0
    0.0000    0.3536    0.0000 C   0  0  0  0  0  0  0  0  0  0  0  0
    0.0000    1.1786    0.0000 F   0  0  0  0  0  0  0  0  0  0  0  0
    0.8250    0.3536    0.0000 F   0  0  0  0  0  0  0  0  0  0  0  0
   -0.8250    0.3536    0.0000 F   0  0  0  0  0  0  0  0  0  0  0  0
    5.2077    4.9743    0.0000 S   0  0  0  0  0  0  0  0  0  0  0  0
    5.2077    4.1493    0.0000 C   0  0  0  0  0  0  0  0  0  0  0  0
    4.4932    3.7368    0.0000 C   0  0  1  0  0  0  0  0  0  0  0  0
    4.4932    2.9118    0.0000 C   0  0  0  0  0  0  0  0  0  0  0  0
    3.7788    2.4993    0.0000 N   0  0  0  0  0  0  0  0  0  0  0  0
    3.7788    1.6743    0.0000 C   0  0  0  0  0  0  0  0  0  0  0  0
    3.0643    1.2618    0.0000 C   0  0  0  0  0  0  0  0  0  0  0  0
    3.0643    0.4368    0.0000 C   0  0  0  0  0  0  0  0  0  0  0  0
    3.7788    0.0243    0.0000 C   0  0  0  0  0  0  0  0  0  0  0  0
    4.4932    0.4368    0.0000 C   0  0  0  0  0  0  0  0  0  0  0  0
    4.4932    1.2618    0.0000 C   0  0  0  0  0  0  0  0  0  0  0  0
    5.2077    0.0243    0.0000 C   0  0  0  0  0  0  0  0  0  0  0  0
    5.2077   -0.8007    0.0000 C   0  0  0  0  0  0  0  0  0  0  0  0
    5.9222   -1.2132    0.0000 C   0  0  0  0  0  0  0  0  0  0  0  0
    6.6366   -0.8007    0.0000 C   0  0  0  0  0  0  0  0  0  0  0  0
    6.6366    0.0243    0.0000 C   0  0  0  0  0  0  0  0  0  0  0  0
    5.9222    0.4368    0.0000 C   0  0  0  0  0  0  0  0  0  0  0  0
    5.9222    1.2618    0.0000 C   0  0  0  0  0  0  0  0  0  0  0  0
    6.6366    1.6743    0.0000 C   0  0  0  0  0  0  0  0  0  0  0  0
    7.3511    1.2618    0.0000 C   0  0  0  0  0  0  0  0  0  0  0  0
    7.3511    0.4368    0.0000 C   0  0  0  0  0  0  0  0  0  0  0  0
    3.7788   -0.8007    0.0000 C   0  0  0  0  0  0  0  0  0  0  0  0
    3.0643   -1.2132    0.0000 O   0  0  0  0  0  0  0  0  0  0  0  0
    4.4932   -1.2132    0.0000 N   0  0  0  0  0  0  0  0  0  0  0  0
    4.4932   -2.0382    0.0000 C   0  0  2  0  0  0  0  0  0  0  0  0
    3.7788   -2.4507    0.0000 C   0  0  0  0  0  0  0  0  0  0  0  0
    3.0643   -2.0382    0.0000 O   0  0  0  0  0  0  0  0  0  0  0  0
    3.7788   -3.2757    0.0000 O   0  0  0  0  0  0  0  0  0  0  0  0
    3.0643   -3.6882    0.0000 C   0  0  0  0  0  0  0  0  0  0  0  0
    5.2077   -2.4507    0.0000 C   0  0  0  0  0  0  0  0  0  0  0  0
    5.2077   -3.2757    0.0000 C   0  0  0  0  0  0  0  0  0  0  0  0
    4.4932   -3.6882    0.0000 C   0  0  0  0  0  0  0  0  0  0  0  0
    5.9222   -3.6882    0.0000 C   0  0  0  0  0  0  0  0  0  0  0  0
    3.7788    4.1493    0.0000 N   0  0  0  0  0  0  0  0  0  0  0  0
  1  2  1  0  0  0  0
  2  3  2  0  0  0  0
  2  4  1  0  0  0  0
  4  5  1  0  0  0  0
  4  6  1  0  0  0  0
  4  7  1  0  0  0  0
  8  9  1  0  0  0  0
  9 10  1  0  0  0  0
 10 11  1  0  0  0  0
 10 41  1  1  0  0  0
 11 12  1  0  0  0  0
 12 13  1  0  0  0  0
 13 14  2  0  0  0  0
 13 18  1  0  0  0  0
 14 15  1  0  0  0  0
 15 16  2  0  0  0  0
 16 17  1  0  0  0  0
 16 29  1  0  0  0  0
 17 18  2  0  0  0  0
 17 19  1  0  0  0  0
 19 20  2  0  0  0  0
 19 24  1  0  0  0  0
 20 21  1  0  0  0  0
 21 22  2  0  0  0  0
 22 23  1  0  0  0  0
 23 24  2  0  0  0  0
 23 28  1  0  0  0  0
 24 25  1  0  0  0  0
 25 26  2  0  0  0  0
 26 27  1  0  0  0  0
 27 28  2  0  0  0  0
 29 30  2  0  0  0  0
 29 31  1  0  0  0  0
 32 31  1  0  0  0  0
 32 33  1  0  0  0  0
 32 37  1  1  0  0  0
 33 34  2  0  0  0  0
 33 35  1  0  0  0  0
 35 36  1  0  0  0  0
 37 38  1  0  0  0  0
 38 39  1  0  0  0  0
 38 40  1  0  0  0  0
M  END
>  <CdId>
297

>  <Formula>
C29H34F3N3O5S

>  <ID>
T6844

>  <Name>
GGTI 298

>  <Synonyms>
GGTI298 Trifluoroacetate; GGTI 298 TFA salt

>  <CAS>
1217457-86-7

>  <MolWt>
593.66

>  <Pathways>
Metabolism

>  <Target>
Transferase inhibitor

>  <Receptor>
GGTase I

$$$$
