Glucosamine sulfate
 OpenBabel02212023462D

 17 15  0  0  1  0  0  0  0  0999 V2000
   -2.5006   -0.2062    0.0000 O   0  0  0  0  0  0  0  0  0  0  0  0
   -1.7862    0.2063    0.0000 C   0  0  0  0  0  0  0  0  0  0  0  0
   -1.0717   -0.2062    0.0000 C   0  0  1  0  0  0  0  0  0  0  0  0
   -1.0717   -1.0312    0.0000 O   0  0  0  0  0  0  0  0  0  0  0  0
   -0.3572    0.2063    0.0000 C   0  0  1  0  0  0  0  0  0  0  0  0
   -0.3572    1.0313    0.0000 O   0  0  0  0  0  0  0  0  0  0  0  0
    0.3572   -0.2063    0.0000 C   0  0  2  0  0  0  0  0  0  0  0  0
    0.3572   -1.0313    0.0000 O   0  0  0  0  0  0  0  0  0  0  0  0
    1.0717    0.2062    0.0000 C   0  0  1  0  0  0  0  0  0  0  0  0
    1.0717    1.0312    0.0000 N   0  0  0  0  0  0  0  0  0  0  0  0
    1.7862   -0.2063    0.0000 C   0  0  0  0  0  0  0  0  0  0  0  0
    2.5006    0.2062    0.0000 O   0  0  0  0  0  0  0  0  0  0  0  0
    5.4471   -0.8250    0.0000 O   0  0  0  0  0  0  0  0  0  0  0  0
    5.4471    0.0000    0.0000 S   0  0  0  0  0  0  0  0  0  0  0  0
    5.4471    0.8250    0.0000 O   0  0  0  0  0  0  0  0  0  0  0  0
    6.2721   -0.0000    0.0000 O   0  0  0  0  0  0  0  0  0  0  0  0
    4.6221    0.0000    0.0000 O   0  0  0  0  0  0  0  0  0  0  0  0
  1  2  1  0  0  0  0
  2  3  1  0  0  0  0
  3  4  1  6  0  0  0
  3  5  1  0  0  0  0
  5  6  1  1  0  0  0
  5  7  1  0  0  0  0
  7  8  1  1  0  0  0
  7  9  1  0  0  0  0
  9 10  1  1  0  0  0
  9 11  1  0  0  0  0
 11 12  2  0  0  0  0
 13 14  2  0  0  0  0
 14 15  2  0  0  0  0
 14 16  1  0  0  0  0
 14 17  1  0  0  0  0
M  END
>  <CdId>
1148

>  <Formula>
C6H15NO9S

>  <ID>
T2792

>  <Name>
Glucosamine sulfate

>  <Synonyms>
D-Glucosaminesulfate;D-Glucosamine sulphate

>  <CAS>
29031-19-4

>  <Source>
Organism

>  <category>
Miscellaneous

>  <MolWt>
277.25

>  <Pathways>
Proteases/Proteasome

>  <Target>
MMP inhibitor

>  <Receptor>
MMP-3

$$$$
