Heptaminol hydrochloride
 OpenBabel02212023462D

 11  9  0  0  0  0  0  0  0  0999 V2000
    0.0000    0.0000    0.0000 Cl  0  0  0  0  0  0  0  0  0  0  0  0
    2.2393   -0.4125    0.0000 C   0  0  0  0  0  0  0  0  0  0  0  0
    2.9538   -0.0000    0.0000 C   0  0  3  0  0  0  0  0  0  0  0  0
    2.9538    0.8250    0.0000 N   0  0  0  0  0  0  0  0  0  0  0  0
    3.6682   -0.4125    0.0000 C   0  0  0  0  0  0  0  0  0  0  0  0
    4.3827    0.0000    0.0000 C   0  0  0  0  0  0  0  0  0  0  0  0
    5.0972   -0.4125    0.0000 C   0  0  0  0  0  0  0  0  0  0  0  0
    5.8116    0.0000    0.0000 C   0  0  0  0  0  0  0  0  0  0  0  0
    6.5261    0.4125    0.0000 C   0  0  0  0  0  0  0  0  0  0  0  0
    6.2241   -0.7145    0.0000 C   0  0  0  0  0  0  0  0  0  0  0  0
    5.3991    0.7145    0.0000 O   0  0  0  0  0  0  0  0  0  0  0  0
  2  3  1  0  0  0  0
  3  4  1  0  0  0  0
  3  5  1  0  0  0  0
  5  6  1  0  0  0  0
  6  7  1  0  0  0  0
  7  8  1  0  0  0  0
  8  9  1  0  0  0  0
  8 10  1  0  0  0  0
  8 11  1  0  0  0  0
M  END
>  <CdId>
1394

>  <Mol Weight>
181.704

>  <Formula>
C8H20ClNO

>  <ID>
T0045

>  <Name>
Heptaminol hydrochloride

>  <Synonyms>
RP-2831 hydrochloride

>  <CAS>
543-15-7

>  <Approved status>
Other countries

>  <Disease>
Cardiovascular system

>  <Indication>
Orthostatic Hypotension

>  <Pathways>
Others

>  <Target>
Others

>  <Receptor>
Others

$$$$
