Heterophyllin B
 OpenBabel02212023462D

 56 60  0  0  1  0  0  0  0  0999 V2000
   12.6856    7.6247    0.0000 C   0  0  0  0  0  0  0  0  0  0  0  0
   11.8677    7.5171    0.0000 C   0  0  0  0  0  0  0  0  0  0  0  0
   11.5519    6.7549    0.0000 C   0  0  2  0  0  0  0  0  0  0  0  0
   12.0542    6.1003    0.0000 C   0  0  0  0  0  0  0  0  0  0  0  0
   10.7340    6.6472    0.0000 C   0  0  2  0  0  0  0  0  0  0  0  0
   10.7340    5.8222    0.0000 N   0  0  0  0  0  0  0  0  0  0  0  0
   10.5205    5.0253    0.0000 C   0  0  0  0  0  0  0  0  0  0  0  0
   11.2827    4.7096    0.0000 O   0  0  0  0  0  0  0  0  0  0  0  0
   10.1080    4.3108    0.0000 C   0  0  2  0  0  0  0  0  0  0  0  0
   10.8431    3.9363    0.0000 C   0  0  0  0  0  0  0  0  0  0  0  0
   10.7140    3.1214    0.0000 C   0  0  0  0  0  0  0  0  0  0  0  0
    9.8992    2.9924    0.0000 C   0  0  0  0  0  0  0  0  0  0  0  0
    9.5246    3.7274    0.0000 N   0  0  0  0  0  0  0  0  0  0  0  0
    8.8101    3.3149    0.0000 C   0  0  0  0  0  0  0  0  0  0  0  0
    9.1259    2.5527    0.0000 O   0  0  0  0  0  0  0  0  0  0  0  0
    8.0133    3.1014    0.0000 C   0  0  2  0  0  0  0  0  0  0  0  0
    8.2682    2.3168    0.0000 C   0  0  0  0  0  0  0  0  0  0  0  0
    7.6008    1.8319    0.0000 C   0  0  0  0  0  0  0  0  0  0  0  0
    6.9333    2.3168    0.0000 C   0  0  0  0  0  0  0  0  0  0  0  0
    7.1883    3.1014    0.0000 N   0  0  0  0  0  0  0  0  0  0  0  0
    6.3914    3.3149    0.0000 C   0  0  0  0  0  0  0  0  0  0  0  0
    6.0757    2.5527    0.0000 O   0  0  0  0  0  0  0  0  0  0  0  0
    5.6769    3.7274    0.0000 C   0  0  2  0  0  0  0  0  0  0  0  0
    5.3024    2.9924    0.0000 C   0  0  0  0  0  0  0  0  0  0  0  0
    4.4875    3.1214    0.0000 C   0  0  0  0  0  0  0  0  0  0  0  0
    4.3585    3.9363    0.0000 C   0  0  0  0  0  0  0  0  0  0  0  0
    5.0935    4.3108    0.0000 N   0  0  0  0  0  0  0  0  0  0  0  0
    4.6810    5.0253    0.0000 C   0  0  0  0  0  0  0  0  0  0  0  0
    3.9188    4.7096    0.0000 O   0  0  0  0  0  0  0  0  0  0  0  0
    4.4675    5.8222    0.0000 C   0  0  2  0  0  0  0  0  0  0  0  0
    3.6496    5.7145    0.0000 C   0  0  0  0  0  0  0  0  0  0  0  0
    3.1473    6.3690    0.0000 C   0  0  0  0  0  0  0  0  0  0  0  0
    2.3294    6.2613    0.0000 C   0  0  0  0  0  0  0  0  0  0  0  0
    3.4631    7.1312    0.0000 C   0  0  0  0  0  0  0  0  0  0  0  0
    4.4675    6.6472    0.0000 N   0  0  0  0  0  0  0  0  0  0  0  0
    4.6810    7.4441    0.0000 C   0  0  0  0  0  0  0  0  0  0  0  0
    3.9188    7.7598    0.0000 O   0  0  0  0  0  0  0  0  0  0  0  0
    5.0935    8.1585    0.0000 C   0  0  0  0  0  0  0  0  0  0  0  0
    5.6769    8.7419    0.0000 N   0  0  0  0  0  0  0  0  0  0  0  0
    6.3914    9.1544    0.0000 C   0  0  0  0  0  0  0  0  0  0  0  0
    6.0757    9.9166    0.0000 O   0  0  0  0  0  0  0  0  0  0  0  0
    7.1883    9.3679    0.0000 C   0  0  0  0  0  0  0  0  0  0  0  0
    8.0133    9.3679    0.0000 N   0  0  0  0  0  0  0  0  0  0  0  0
    8.8101    9.1544    0.0000 C   0  0  0  0  0  0  0  0  0  0  0  0
    9.1259    9.9166    0.0000 O   0  0  0  0  0  0  0  0  0  0  0  0
    9.5246    8.7419    0.0000 C   0  0  2  0  0  0  0  0  0  0  0  0
   10.0268    9.3964    0.0000 C   0  0  0  0  0  0  0  0  0  0  0  0
   10.8448    9.2887    0.0000 C   0  0  0  0  0  0  0  0  0  0  0  0
   11.3470    9.9432    0.0000 C   0  0  0  0  0  0  0  0  0  0  0  0
   12.1650    9.8356    0.0000 C   0  0  0  0  0  0  0  0  0  0  0  0
   12.4807    9.0734    0.0000 C   0  0  0  0  0  0  0  0  0  0  0  0
   11.9784    8.4188    0.0000 C   0  0  0  0  0  0  0  0  0  0  0  0
   11.1605    8.5265    0.0000 C   0  0  0  0  0  0  0  0  0  0  0  0
   10.1080    8.1585    0.0000 N   0  0  0  0  0  0  0  0  0  0  0  0
   10.5205    7.4441    0.0000 C   0  0  0  0  0  0  0  0  0  0  0  0
   11.2827    7.7598    0.0000 O   0  0  0  0  0  0  0  0  0  0  0  0
  1  2  1  0  0  0  0
  2  3  1  0  0  0  0
  3  4  1  6  0  0  0
  5  3  1  6  0  0  0
  5  6  1  0  0  0  0
  5 55  1  0  0  0  0
  6  7  1  0  0  0  0
  7  8  2  0  0  0  0
  7  9  1  0  0  0  0
  9 10  1  6  0  0  0
  9 13  1  0  0  0  0
 10 11  1  0  0  0  0
 11 12  1  0  0  0  0
 12 13  1  0  0  0  0
 13 14  1  0  0  0  0
 14 15  2  0  0  0  0
 14 16  1  0  0  0  0
 16 17  1  6  0  0  0
 16 20  1  0  0  0  0
 17 18  1  0  0  0  0
 18 19  1  0  0  0  0
 19 20  1  0  0  0  0
 20 21  1  0  0  0  0
 21 22  2  0  0  0  0
 21 23  1  0  0  0  0
 23 24  1  6  0  0  0
 23 27  1  0  0  0  0
 24 25  1  0  0  0  0
 25 26  1  0  0  0  0
 26 27  1  0  0  0  0
 27 28  1  0  0  0  0
 28 29  2  0  0  0  0
 28 30  1  0  0  0  0
 30 31  1  6  0  0  0
 30 35  1  0  0  0  0
 31 32  1  0  0  0  0
 32 33  1  0  0  0  0
 32 34  1  0  0  0  0
 35 36  1  0  0  0  0
 36 37  2  0  0  0  0
 36 38  1  0  0  0  0
 38 39  1  0  0  0  0
 39 40  1  0  0  0  0
 40 41  2  0  0  0  0
 40 42  1  0  0  0  0
 42 43  1  0  0  0  0
 43 44  1  0  0  0  0
 44 45  2  0  0  0  0
 44 46  1  0  0  0  0
 46 47  1  6  0  0  0
 46 54  1  0  0  0  0
 47 48  1  0  0  0  0
 48 49  2  0  0  0  0
 48 53  1  0  0  0  0
 49 50  1  0  0  0  0
 50 51  2  0  0  0  0
 51 52  1  0  0  0  0
 52 53  2  0  0  0  0
 54 55  1  0  0  0  0
 55 56  2  0  0  0  0
M  END
>  <CdId>
1136

>  <Formula>
C40H58N8O8

>  <ID>
T4S1796

>  <Name>
Heterophyllin B

>  <CAS>
145459-19-4

>  <MolWt>
778.95

>  <Pathways>
PI3K/AKT/¦Â-catenin pathway

>  <Target>
Others

>  <Receptor>
Others

$$$$
