Hexamethylene amiloride
 OpenBabel02212023462D

 21 22  0  0  0  0  0  0  0  0999 V2000
   -1.1511    1.1770    0.0000 N   0  0  0  0  0  0  0  0  0  0  0  0
   -0.4366    0.7645    0.0000 C   0  0  0  0  0  0  0  0  0  0  0  0
    0.2779    1.1770    0.0000 N   0  0  0  0  0  0  0  0  0  0  0  0
   -0.4366   -0.0605    0.0000 N   0  0  0  0  0  0  0  0  0  0  0  0
    0.2779   -0.4730    0.0000 C   0  0  0  0  0  0  0  0  0  0  0  0
    0.9923   -0.0605    0.0000 O   0  0  0  0  0  0  0  0  0  0  0  0
    0.2779   -1.2980    0.0000 C   0  0  0  0  0  0  0  0  0  0  0  0
    0.9923   -1.7105    0.0000 N   0  0  0  0  0  0  0  0  0  0  0  0
    0.9923   -2.5355    0.0000 C   0  0  0  0  0  0  0  0  0  0  0  0
    1.7068   -2.9480    0.0000 Cl  0  0  0  0  0  0  0  0  0  0  0  0
    0.2779   -2.9480    0.0000 C   0  0  0  0  0  0  0  0  0  0  0  0
   -0.4366   -2.5355    0.0000 N   0  0  0  0  0  0  0  0  0  0  0  0
   -0.4366   -1.7105    0.0000 C   0  0  0  0  0  0  0  0  0  0  0  0
   -1.1511   -1.2980    0.0000 N   0  0  0  0  0  0  0  0  0  0  0  0
    0.2779   -3.7730    0.0000 N   0  0  0  0  0  0  0  0  0  0  0  0
    1.0212   -4.1310    0.0000 C   0  0  0  0  0  0  0  0  0  0  0  0
    1.2047   -4.9353    0.0000 C   0  0  0  0  0  0  0  0  0  0  0  0
    0.6904   -5.5803    0.0000 C   0  0  0  0  0  0  0  0  0  0  0  0
   -0.1346   -5.5803    0.0000 C   0  0  0  0  0  0  0  0  0  0  0  0
   -0.6490   -4.9353    0.0000 C   0  0  0  0  0  0  0  0  0  0  0  0
   -0.4654   -4.1310    0.0000 C   0  0  0  0  0  0  0  0  0  0  0  0
  1  2  1  0  0  0  0
  2  3  2  0  0  0  0
  2  4  1  0  0  0  0
  4  5  1  0  0  0  0
  5  6  2  0  0  0  0
  5  7  1  0  0  0  0
  7  8  2  0  0  0  0
  7 13  1  0  0  0  0
  8  9  1  0  0  0  0
  9 10  1  0  0  0  0
  9 11  2  0  0  0  0
 11 12  1  0  0  0  0
 11 15  1  0  0  0  0
 12 13  2  0  0  0  0
 13 14  1  0  0  0  0
 15 16  1  0  0  0  0
 15 21  1  0  0  0  0
 16 17  1  0  0  0  0
 17 18  1  0  0  0  0
 18 19  1  0  0  0  0
 19 20  1  0  0  0  0
 20 21  1  0  0  0  0
M  END
>  <CdId>
1351

>  <Formula>
C12H18ClN7O

>  <ID>
T4699

>  <Name>
Hexamethylene amiloride

>  <Synonyms>
5-(N,N-Hexamethylene)amiloride; HMA-5; 5-HMA

>  <CAS>
1428-95-1

>  <MolWt>
311.77

>  <Pathways>
Membrane transporter/Ion channel; Neuroscience

>  <Target>
Sodium Channel; TRP/TRPV Channel; ASIC3 channels; P2 Receptor

>  <Receptor>
NHE exchangers; TRPA1; ASIC3; P2X7

$$$$
