Homatropine Bromide
 OpenBabel02212023462D

 21 22  0  0  1  0  0  0  0  0999 V2000
    0.0000    0.0000    0.0000 Br  0  0  0  0  0  0  0  0  0  0  0  0
    2.6619    2.4325    0.0000 N   0  0  0  0  0  0  0  0  0  0  0  0
    3.2225    1.9926    0.0000 C   0  0  2  0  0  0  0  0  0  0  0  0
    4.1513    2.0081    0.0000 C   0  0  0  0  0  0  0  0  0  0  0  0
    4.2895    1.1907    0.0000 C   0  0  1  0  0  0  0  0  0  0  0  0
    4.7013    0.4758    0.0000 O   0  0  0  0  0  0  0  0  0  0  0  0
    4.2881   -0.2383    0.0000 C   0  0  0  0  0  0  0  0  0  0  0  0
    3.4631   -0.2375    0.0000 O   0  0  0  0  0  0  0  0  0  0  0  0
    4.6999   -0.9531    0.0000 C   0  0  3  0  0  0  0  0  0  0  0  0
    4.2867   -1.6672    0.0000 C   0  0  0  0  0  0  0  0  0  0  0  0
    4.6985   -2.3821    0.0000 C   0  0  0  0  0  0  0  0  0  0  0  0
    4.2853   -3.0961    0.0000 C   0  0  0  0  0  0  0  0  0  0  0  0
    3.4603   -3.0953    0.0000 C   0  0  0  0  0  0  0  0  0  0  0  0
    3.0485   -2.3805    0.0000 C   0  0  0  0  0  0  0  0  0  0  0  0
    3.4617   -1.6664    0.0000 C   0  0  0  0  0  0  0  0  0  0  0  0
    5.5249   -0.9540    0.0000 O   0  0  0  0  0  0  0  0  0  0  0  0
    3.7733    1.6194    0.0000 C   0  0  0  0  0  0  0  0  0  0  0  0
    2.8016    1.6194    0.0000 C   0  0  1  0  0  0  0  0  0  0  0  0
    2.2817    0.9071    0.0000 C   0  0  0  0  0  0  0  0  0  0  0  0
    2.9020    1.2840    0.0000 C   0  0  0  0  0  0  0  0  0  0  0  0
    2.2393    3.1410    0.0000 C   0  0  0  0  0  0  0  0  0  0  0  0
  2 18  1  0  0  0  0
  2 21  1  0  0  0  0
  3  2  1  0  0  0  0
  3  4  1  6  0  0  0
  3 20  1  0  0  0  0
  4  5  1  0  0  0  0
  5  6  1  1  0  0  0
  5 17  1  0  0  0  0
  6  7  1  0  0  0  0
  7  8  2  0  0  0  0
  7  9  1  0  0  0  0
  9 10  1  0  0  0  0
  9 16  1  0  0  0  0
 10 11  2  0  0  0  0
 10 15  1  0  0  0  0
 11 12  1  0  0  0  0
 12 13  2  0  0  0  0
 13 14  1  0  0  0  0
 14 15  2  0  0  0  0
 18 17  1  1  0  0  0
 18 19  1  0  0  0  0
 19 20  1  0  0  0  0
M  END
>  <CdId>
184

>  <Mol Weight>
356.255

>  <Formula>
C16H22BrNO3

>  <ID>
T0177

>  <Name>
Homatropine Bromide

>  <CAS>
51-56-9

>  <Approved status>
FDA

>  <Disease>
Nervous system

>  <Indication>
Hot Flashes

>  <Pathways>
Neuroscience

>  <Target>
AChR antagonist

>  <Receptor>
mAChR (SHR-E); mAChR (WKY-E)

$$$$
