Isoetharine mesylate salt
 OpenBabel02212023462D

 22 21  0  0  0  0  0  0  0  0999 V2000
    0.0000   -0.8250    0.0000 C   0  0  0  0  0  0  0  0  0  0  0  0
    0.0000    0.0000    0.0000 S   0  0  0  0  0  0  0  0  0  0  0  0
    0.0000    0.8250    0.0000 O   0  0  0  0  0  0  0  0  0  0  0  0
    0.8250   -0.0000    0.0000 O   0  0  0  0  0  0  0  0  0  0  0  0
   -0.8250    0.0000    0.0000 O   0  0  0  0  0  0  0  0  0  0  0  0
    5.9222   -0.8735    0.0000 C   0  0  0  0  0  0  0  0  0  0  0  0
    5.2077   -0.4610    0.0000 C   0  0  0  0  0  0  0  0  0  0  0  0
    5.2077    0.3640    0.0000 C   0  0  3  0  0  0  0  0  0  0  0  0
    4.4932    0.7765    0.0000 N   0  0  0  0  0  0  0  0  0  0  0  0
    3.7788    0.3640    0.0000 C   0  0  0  0  0  0  0  0  0  0  0  0
    3.0643    0.7765    0.0000 C   0  0  0  0  0  0  0  0  0  0  0  0
    3.7788   -0.4610    0.0000 C   0  0  0  0  0  0  0  0  0  0  0  0
    5.9222    0.7765    0.0000 C   0  0  3  0  0  0  0  0  0  0  0  0
    5.9222    1.6015    0.0000 O   0  0  0  0  0  0  0  0  0  0  0  0
    6.6366    0.3640    0.0000 C   0  0  0  0  0  0  0  0  0  0  0  0
    7.3511    0.7765    0.0000 C   0  0  0  0  0  0  0  0  0  0  0  0
    8.0656    0.3640    0.0000 C   0  0  0  0  0  0  0  0  0  0  0  0
    8.0656   -0.4610    0.0000 C   0  0  0  0  0  0  0  0  0  0  0  0
    8.7801   -0.8735    0.0000 O   0  0  0  0  0  0  0  0  0  0  0  0
    7.3511   -0.8735    0.0000 C   0  0  0  0  0  0  0  0  0  0  0  0
    7.3511   -1.6985    0.0000 O   0  0  0  0  0  0  0  0  0  0  0  0
    6.6366   -0.4610    0.0000 C   0  0  0  0  0  0  0  0  0  0  0  0
  1  2  1  0  0  0  0
  2  3  1  0  0  0  0
  2  4  2  0  0  0  0
  2  5  2  0  0  0  0
  6  7  1  0  0  0  0
  7  8  1  0  0  0  0
  8  9  1  0  0  0  0
  8 13  1  0  0  0  0
  9 10  1  0  0  0  0
 10 11  1  0  0  0  0
 10 12  1  0  0  0  0
 13 14  1  0  0  0  0
 13 15  1  0  0  0  0
 15 16  2  0  0  0  0
 15 22  1  0  0  0  0
 16 17  1  0  0  0  0
 17 18  2  0  0  0  0
 18 19  1  0  0  0  0
 18 20  1  0  0  0  0
 20 21  1  0  0  0  0
 20 22  2  0  0  0  0
M  END
>  <CdId>
1194

>  <Formula>
C14H25NO6S

>  <ID>
T4983

>  <Name>
Isoetharine mesylate salt

>  <Synonyms>
Isoetarine mesilate

>  <CAS>
7279-75-6

>  <MolWt>
335.42

>  <Pathways>
GPCR/G Protein; Others

>  <Target>
Adrenergic Receptor; Others

>  <Receptor>
¦Â-adrenergic receptor; PXR

$$$$
