isoleucine
 OpenBabel02212023462D

  9  8  0  0  1  0  0  0  0  0999 V2000
    0.5230    1.1270    0.0000 C   0  0  0  0  0  0  0  0  0  0  0  0
   -0.1914    0.7145    0.0000 O   0  0  0  0  0  0  0  0  0  0  0  0
    1.2375    0.7145    0.0000 C   0  0  1  0  0  0  0  0  0  0  0  0
    1.2375   -0.1105    0.0000 N   0  0  0  0  0  0  0  0  0  0  0  0
    1.9520    1.1270    0.0000 C   0  0  2  0  0  0  0  0  0  0  0  0
    2.6664    0.7145    0.0000 C   0  0  0  0  0  0  0  0  0  0  0  0
    3.3809    1.1270    0.0000 C   0  0  0  0  0  0  0  0  0  0  0  0
    1.9520    1.9520    0.0000 C   0  0  0  0  0  0  0  0  0  0  0  0
    0.5230    1.9520    0.0000 O   0  0  0  0  0  0  0  0  0  0  0  0
  1  2  2  0  0  0  0
  1  3  1  0  0  0  0
  1  9  1  0  0  0  0
  3  4  1  6  0  0  0
  3  5  1  0  0  0  0
  5  6  1  0  0  0  0
  5  8  1  1  0  0  0
  6  7  1  0  0  0  0
M  END
>  <CdId>
1799

>  <Mol Weight>
131.1729

>  <Formula>
C6H13NO2

>  <ID>
T0063

>  <Name>
isoleucine

>  <Synonyms>
Ile

>  <CAS>
73-32-5

>  <Approved status>
PMDA

>  <Disease>
Metabolism

>  <Indication>
Liver Disease

>  <Pathways>
Others

>  <Target>
Amino Acids and Derivatives inhibitor

>  <Receptor>
Amino Acids and Derivatives

$$$$
