Isoprenaline hydrochloride
 OpenBabel02212023462D

 16 15  0  0  0  0  0  0  0  0999 V2000
    0.0000    0.0000    0.0000 Cl  0  0  0  0  0  0  0  0  0  0  0  0
    2.2393    0.5225    0.0000 C   0  0  0  0  0  0  0  0  0  0  0  0
    2.9538    0.1100    0.0000 C   0  0  0  0  0  0  0  0  0  0  0  0
    2.9538   -0.7150    0.0000 C   0  0  0  0  0  0  0  0  0  0  0  0
    3.6682    0.5225    0.0000 N   0  0  0  0  0  0  0  0  0  0  0  0
    4.3827    0.1100    0.0000 C   0  0  0  0  0  0  0  0  0  0  0  0
    5.0972    0.5225    0.0000 C   0  0  3  0  0  0  0  0  0  0  0  0
    5.0972    1.3475    0.0000 O   0  0  0  0  0  0  0  0  0  0  0  0
    5.8116    0.1100    0.0000 C   0  0  0  0  0  0  0  0  0  0  0  0
    6.5261    0.5225    0.0000 C   0  0  0  0  0  0  0  0  0  0  0  0
    7.2406    0.1100    0.0000 C   0  0  0  0  0  0  0  0  0  0  0  0
    7.9551    0.5225    0.0000 O   0  0  0  0  0  0  0  0  0  0  0  0
    7.2406   -0.7150    0.0000 C   0  0  0  0  0  0  0  0  0  0  0  0
    7.9551   -1.1275    0.0000 O   0  0  0  0  0  0  0  0  0  0  0  0
    6.5261   -1.1275    0.0000 C   0  0  0  0  0  0  0  0  0  0  0  0
    5.8116   -0.7150    0.0000 C   0  0  0  0  0  0  0  0  0  0  0  0
  2  3  1  0  0  0  0
  3  4  1  0  0  0  0
  3  5  1  0  0  0  0
  5  6  1  0  0  0  0
  6  7  1  0  0  0  0
  7  8  1  0  0  0  0
  7  9  1  0  0  0  0
  9 10  2  0  0  0  0
  9 16  1  0  0  0  0
 10 11  1  0  0  0  0
 11 12  1  0  0  0  0
 11 13  2  0  0  0  0
 13 14  1  0  0  0  0
 13 15  1  0  0  0  0
 15 16  2  0  0  0  0
M  END
>  <CdId>
608

>  <Mol Weight>
247.719

>  <Formula>
C11H18ClNO3

>  <ID>
T1056

>  <Name>
Isoprenaline hydrochloride

>  <Synonyms>
NCI-c55630

>  <CAS>
51-30-9

>  <Approved status>
FDA

>  <Disease>
Cardiovascular system/Respiratory system

>  <Indication>
Bradycardia; Heart Block; Asthma

>  <Pathways>
Neuroscience; Metabolism; PI3K/Akt/mTOR signaling; GPCR/G Protein

>  <Target>
Adrenergic Receptor ; PDE; PI3K

>  <Receptor>
Adrenergic Receptor; cAMP PDE; PI3K

$$$$
