JNJ-38877605
 OpenBabel02212023462D

 28 32  0  0  0  0  0  0  0  0999 V2000
    0.6776   -6.9337    0.0000 C   0  0  0  0  0  0  0  0  0  0  0  0
    0.5914   -6.1133    0.0000 N   0  0  0  0  0  0  0  0  0  0  0  0
   -0.1231   -5.7008    0.0000 C   0  0  0  0  0  0  0  0  0  0  0  0
    0.0484   -4.8938    0.0000 C   0  0  0  0  0  0  0  0  0  0  0  0
    0.8689   -4.8076    0.0000 C   0  0  0  0  0  0  0  0  0  0  0  0
    1.2045   -5.5612    0.0000 N   0  0  0  0  0  0  0  0  0  0  0  0
   -0.5036   -4.2807    0.0000 C   0  0  0  0  0  0  0  0  0  0  0  0
   -1.3106   -4.4522    0.0000 C   0  0  0  0  0  0  0  0  0  0  0  0
   -1.8626   -3.8391    0.0000 C   0  0  0  0  0  0  0  0  0  0  0  0
   -1.6077   -3.0545    0.0000 C   0  0  0  0  0  0  0  0  0  0  0  0
   -2.0202   -2.3400    0.0000 N   0  0  0  0  0  0  0  0  0  0  0  0
   -1.4681   -1.7269    0.0000 N   0  0  0  0  0  0  0  0  0  0  0  0
   -0.7145   -2.0625    0.0000 C   0  0  0  0  0  0  0  0  0  0  0  0
   -0.8007   -2.8830    0.0000 N   0  0  0  0  0  0  0  0  0  0  0  0
   -0.2487   -3.4961    0.0000 N   0  0  0  0  0  0  0  0  0  0  0  0
    0.0000   -1.6500    0.0000 C   0  0  0  0  0  0  0  0  0  0  0  0
    0.4125   -2.3645    0.0000 F   0  0  0  0  0  0  0  0  0  0  0  0
   -0.4125   -0.9355    0.0000 F   0  0  0  0  0  0  0  0  0  0  0  0
    0.7145   -1.2375    0.0000 C   0  0  0  0  0  0  0  0  0  0  0  0
    0.7145   -0.4125    0.0000 C   0  0  0  0  0  0  0  0  0  0  0  0
    1.4289    0.0000    0.0000 C   0  0  0  0  0  0  0  0  0  0  0  0
    2.1434   -0.4125    0.0000 C   0  0  0  0  0  0  0  0  0  0  0  0
    2.8579    0.0000    0.0000 N   0  0  0  0  0  0  0  0  0  0  0  0
    3.5724   -0.4125    0.0000 C   0  0  0  0  0  0  0  0  0  0  0  0
    3.5724   -1.2375    0.0000 C   0  0  0  0  0  0  0  0  0  0  0  0
    2.8579   -1.6500    0.0000 C   0  0  0  0  0  0  0  0  0  0  0  0
    2.1434   -1.2375    0.0000 C   0  0  0  0  0  0  0  0  0  0  0  0
    1.4289   -1.6500    0.0000 C   0  0  0  0  0  0  0  0  0  0  0  0
  1  2  1  0  0  0  0
  2  3  1  0  0  0  0
  2  6  1  0  0  0  0
  3  4  2  0  0  0  0
  4  5  1  0  0  0  0
  4  7  1  0  0  0  0
  5  6  2  0  0  0  0
  7  8  1  0  0  0  0
  7 15  2  0  0  0  0
  8  9  2  0  0  0  0
  9 10  1  0  0  0  0
 10 11  2  0  0  0  0
 10 14  1  0  0  0  0
 11 12  1  0  0  0  0
 12 13  2  0  0  0  0
 13 14  1  0  0  0  0
 13 16  1  0  0  0  0
 14 15  1  0  0  0  0
 16 17  1  0  0  0  0
 16 18  1  0  0  0  0
 16 19  1  0  0  0  0
 19 20  2  0  0  0  0
 19 28  1  0  0  0  0
 20 21  1  0  0  0  0
 21 22  2  0  0  0  0
 22 23  1  0  0  0  0
 22 27  1  0  0  0  0
 23 24  2  0  0  0  0
 24 25  1  0  0  0  0
 25 26  2  0  0  0  0
 26 27  1  0  0  0  0
 27 28  2  0  0  0  0
M  END
>  <CdId>
767

>  <Formula>
C19H13F2N7

>  <ID>
T6095

>  <Name>
JNJ-38877605

>  <Synonyms>
JNJ 38877605; JNJ-38877605

>  <CAS>
943540-75-8

>  <MolWt>
377.35

>  <Pathways>
Tyrosine Kinase/Adaptors

>  <Target>
c-Met/HGFR inhibitor

>  <Receptor>
c-Met

$$$$
