KPT-276
 OpenBabel02212023462D

 29 31  0  0  0  0  0  0  0  0999 V2000
   -0.7003   -5.3010    0.0000 C   0  0  0  0  0  0  0  0  0  0  0  0
   -0.1170   -4.7176    0.0000 C   0  0  0  0  0  0  0  0  0  0  0  0
    0.4664   -5.3010    0.0000 C   0  0  0  0  0  0  0  0  0  0  0  0
   -0.1170   -5.8844    0.0000 N   0  0  0  0  0  0  0  0  0  0  0  0
   -0.1170   -6.7094    0.0000 C   0  0  0  0  0  0  0  0  0  0  0  0
    0.5975   -7.1219    0.0000 O   0  0  0  0  0  0  0  0  0  0  0  0
   -0.8314   -7.1219    0.0000 C   0  0  0  0  0  0  0  0  0  0  0  0
   -0.8314   -7.9469    0.0000 C   0  0  0  0  0  0  0  0  0  0  0  0
   -0.1170   -8.3594    0.0000 N   0  0  0  0  0  0  0  0  0  0  0  0
    0.6367   -8.0238    0.0000 C   0  0  0  0  0  0  0  0  0  0  0  0
    1.1887   -8.6369    0.0000 N   0  0  0  0  0  0  0  0  0  0  0  0
    0.7762   -9.3514    0.0000 C   0  0  0  0  0  0  0  0  0  0  0  0
   -0.0307   -9.1798    0.0000 N   0  0  0  0  0  0  0  0  0  0  0  0
    1.1118  -10.1050    0.0000 C   0  0  0  0  0  0  0  0  0  0  0  0
    1.9323  -10.1913    0.0000 C   0  0  0  0  0  0  0  0  0  0  0  0
    2.2678  -10.9450    0.0000 C   0  0  0  0  0  0  0  0  0  0  0  0
    1.7829  -11.6124    0.0000 C   0  0  0  0  0  0  0  0  0  0  0  0
    0.9624  -11.5262    0.0000 C   0  0  0  0  0  0  0  0  0  0  0  0
    0.6269  -10.7725    0.0000 C   0  0  0  0  0  0  0  0  0  0  0  0
    0.4775  -12.1936    0.0000 C   0  0  0  0  0  0  0  0  0  0  0  0
   -0.0074  -12.8610    0.0000 F   0  0  0  0  0  0  0  0  0  0  0  0
    1.1449  -12.6785    0.0000 F   0  0  0  0  0  0  0  0  0  0  0  0
   -0.1899  -11.7087    0.0000 F   0  0  0  0  0  0  0  0  0  0  0  0
    3.0883  -11.0312    0.0000 C   0  0  0  0  0  0  0  0  0  0  0  0
    3.9088  -11.1174    0.0000 F   0  0  0  0  0  0  0  0  0  0  0  0
    3.0021  -11.8517    0.0000 F   0  0  0  0  0  0  0  0  0  0  0  0
    3.1745  -10.2107    0.0000 F   0  0  0  0  0  0  0  0  0  0  0  0
   -0.5480   -4.0142    0.0000 F   0  0  0  0  0  0  0  0  0  0  0  0
    0.3141   -4.0142    0.0000 F   0  0  0  0  0  0  0  0  0  0  0  0
  1  2  1  0  0  0  0
  1  4  1  0  0  0  0
  2  3  1  0  0  0  0
  2 28  1  0  0  0  0
  2 29  1  0  0  0  0
  3  4  1  0  0  0  0
  4  5  1  0  0  0  0
  5  6  2  0  0  0  0
  5  7  1  0  0  0  0
  7  8  2  0  0  0  0
  8  9  1  0  0  0  0
  9 10  1  0  0  0  0
  9 13  1  0  0  0  0
 10 11  2  0  0  0  0
 11 12  1  0  0  0  0
 12 13  2  0  0  0  0
 12 14  1  0  0  0  0
 14 15  2  0  0  0  0
 14 19  1  0  0  0  0
 15 16  1  0  0  0  0
 16 17  2  0  0  0  0
 16 24  1  0  0  0  0
 17 18  1  0  0  0  0
 18 19  2  0  0  0  0
 18 20  1  0  0  0  0
 20 21  1  0  0  0  0
 20 22  1  0  0  0  0
 20 23  1  0  0  0  0
 24 25  1  0  0  0  0
 24 26  1  0  0  0  0
 24 27  1  0  0  0  0
M  END
>  <CdId>
784

>  <Formula>
C16H10F8N4O

>  <ID>
T6074

>  <Name>
KPT-276

>  <Synonyms>
KPT 276; KPT-276

>  <CAS>
1421919-75-6

>  <MolWt>
426.26

>  <Pathways>
Membrane transporter/Ion channel

>  <Target>
CRM1 inhibitor

>  <Receptor>
CRM1

$$$$
