L(+)-Ornithine hydrochloride
 OpenBabel02212023462D

 10  8  0  0  1  0  0  0  0  0999 V2000
    0.0000    0.0000    0.0000 Cl  0  0  0  0  0  0  0  0  0  0  0  0
    2.2393    0.1833    0.0000 N   0  0  0  0  0  0  0  0  0  0  0  0
    2.9538   -0.2292    0.0000 C   0  0  0  0  0  0  0  0  0  0  0  0
    3.6682    0.1833    0.0000 C   0  0  0  0  0  0  0  0  0  0  0  0
    4.3827   -0.2292    0.0000 C   0  0  0  0  0  0  0  0  0  0  0  0
    5.0972    0.1833    0.0000 C   0  0  2  0  0  0  0  0  0  0  0  0
    5.0972    1.0083    0.0000 N   0  0  0  0  0  0  0  0  0  0  0  0
    5.8116   -0.2292    0.0000 C   0  0  0  0  0  0  0  0  0  0  0  0
    6.5261    0.1833    0.0000 O   0  0  0  0  0  0  0  0  0  0  0  0
    5.8116   -1.0542    0.0000 O   0  0  0  0  0  0  0  0  0  0  0  0
  2  3  1  0  0  0  0
  3  4  1  0  0  0  0
  4  5  1  0  0  0  0
  5  6  1  0  0  0  0
  6  7  1  6  0  0  0
  6  8  1  0  0  0  0
  8  9  1  0  0  0  0
  8 10  2  0  0  0  0
M  END
>  <CdId>
2759

>  <Formula>
C5H13ClN2O2

>  <ID>
T2O2701

>  <Name>
L(+)-Ornithine hydrochloride

>  <Synonyms>
L-Ornithine Hydrochloride; (S)-2,5-Diaminopentanoic acid

>  <CAS>
3184-13-2

>  <MolWt>
168.62

>  <Pathways>
Others

>  <Target>
Others

>  <Receptor>
Others

$$$$
