L-Cysteic acid monohydrate
 OpenBabel02212023462D

 11  9  0  0  1  0  0  0  0  0999 V2000
    0.0000    0.0000    0.0000 O   0  0  0  0  0  0  0  0  0  0  0  0
    4.2648    0.9075    0.0000 N   0  0  0  0  0  0  0  0  0  0  0  0
    4.2648    0.0825    0.0000 C   0  0  1  0  0  0  0  0  0  0  0  0
    3.5504   -0.3300    0.0000 C   0  0  0  0  0  0  0  0  0  0  0  0
    2.8359    0.0825    0.0000 S   0  0  0  0  0  0  0  0  0  0  0  0
    2.1214    0.4950    0.0000 O   0  0  0  0  0  0  0  0  0  0  0  0
    2.4234   -0.6320    0.0000 O   0  0  0  0  0  0  0  0  0  0  0  0
    3.2484    0.7970    0.0000 O   0  0  0  0  0  0  0  0  0  0  0  0
    4.9793   -0.3300    0.0000 C   0  0  0  0  0  0  0  0  0  0  0  0
    5.6938    0.0825    0.0000 O   0  0  0  0  0  0  0  0  0  0  0  0
    4.9793   -1.1550    0.0000 O   0  0  0  0  0  0  0  0  0  0  0  0
  3  2  1  6  0  0  0
  3  4  1  0  0  0  0
  3  9  1  0  0  0  0
  4  5  1  0  0  0  0
  5  6  1  0  0  0  0
  5  7  2  0  0  0  0
  5  8  2  0  0  0  0
  9 10  1  0  0  0  0
  9 11  2  0  0  0  0
M  END
>  <CdId>
223

>  <Formula>
C3H9NO6S

>  <ID>
T5083

>  <Name>
L-Cysteic acid monohydrate

>  <Synonyms>
3-Sulfo-L-alanine Monohydrate

>  <CAS>
23537-25-9

>  <Source>
Animal

>  <category>
Others

>  <MolWt>
187.17

>  <Pathways>
Neuroscience

>  <Target>
GluR

>  <Receptor>
mGluR

$$$$
