Malic acid
 OpenBabel02212023462D

  9  8  0  0  0  0  0  0  0  0999 V2000
    1.9520    1.9520    0.0000 O   0  0  0  0  0  0  0  0  0  0  0  0
    1.9520    1.1270    0.0000 C   0  0  3  0  0  0  0  0  0  0  0  0
    1.2375    0.7145    0.0000 C   0  0  0  0  0  0  0  0  0  0  0  0
    0.5230    1.1270    0.0000 C   0  0  0  0  0  0  0  0  0  0  0  0
   -0.1914    0.7145    0.0000 O   0  0  0  0  0  0  0  0  0  0  0  0
    0.5230    1.9520    0.0000 O   0  0  0  0  0  0  0  0  0  0  0  0
    2.6664    0.7145    0.0000 C   0  0  0  0  0  0  0  0  0  0  0  0
    3.3809    1.1270    0.0000 O   0  0  0  0  0  0  0  0  0  0  0  0
    2.6664   -0.1105    0.0000 O   0  0  0  0  0  0  0  0  0  0  0  0
  1  2  1  0  0  0  0
  2  3  1  0  0  0  0
  2  7  1  0  0  0  0
  3  4  1  0  0  0  0
  4  5  1  0  0  0  0
  4  6  2  0  0  0  0
  7  8  1  0  0  0  0
  7  9  2  0  0  0  0
M  END
>  <CdId>
2730

>  <Formula>
C4H6O5

>  <ID>
T2S0850

>  <Name>
Malic acid

>  <Synonyms>
FDA 2018; Hydroxybutanedioic acid; E 296; 2-Hydroxysuccinic acid; Pomalus acid; Deoxytetraric acid

>  <CAS>
6915-15-7

>  <MolWt>
134.08

>  <Pathways>
Others

>  <Target>
Others

>  <Receptor>
Others

$$$$
