Methylmalonic acid
 OpenBabel02212023462D

  8  7  0  0  0  0  0  0  0  0999 V2000
    2.0625    0.7145    0.0000 C   0  0  0  0  0  0  0  0  0  0  0  0
    1.2375    0.7145    0.0000 C   0  0  0  0  0  0  0  0  0  0  0  0
    0.8250    1.4289    0.0000 C   0  0  0  0  0  0  0  0  0  0  0  0
    1.2375    2.1434    0.0000 O   0  0  0  0  0  0  0  0  0  0  0  0
   -0.0000    1.4289    0.0000 O   0  0  0  0  0  0  0  0  0  0  0  0
    0.8250    0.0000    0.0000 C   0  0  0  0  0  0  0  0  0  0  0  0
    1.2375   -0.7145    0.0000 O   0  0  0  0  0  0  0  0  0  0  0  0
    0.0000    0.0000    0.0000 O   0  0  0  0  0  0  0  0  0  0  0  0
  1  2  1  0  0  0  0
  2  3  1  0  0  0  0
  2  6  1  0  0  0  0
  3  4  1  0  0  0  0
  3  5  2  0  0  0  0
  6  7  1  0  0  0  0
  6  8  2  0  0  0  0
M  END
>  <CdId>
393

>  <Formula>
C4H6O4

>  <ID>
T4817

>  <Name>
Methylmalonic acid

>  <Synonyms>
Methylmalonate;Isosuccinic acid;Methylpropanedioic acid

>  <CAS>
516-05-2

>  <Source>
Animal

>  <category>
Others

>  <MolWt>
118.09

>  <Pathways>
Others

>  <Target>
Others

>  <Receptor>
Others

$$$$
