Monomethyl auristatin E
 OpenBabel02212023462D

 51 52  0  0  1  0  0  0  0  0999 V2000
    6.1809   -3.0196    0.0000 C   0  0  0  0  0  0  0  0  0  0  0  0
    6.0250   -3.8298    0.0000 C   0  0  0  0  0  0  0  0  0  0  0  0
    6.6486   -4.3698    0.0000 C   0  0  2  0  0  0  0  0  0  0  0  0
    7.4282   -4.0998    0.0000 C   0  0  0  0  0  0  0  0  0  0  0  0
    6.4927   -5.1800    0.0000 C   0  0  1  0  0  0  0  0  0  0  0  0
    5.7131   -5.4500    0.0000 C   0  0  1  0  0  0  0  0  0  0  0  0
    5.0895   -4.9099    0.0000 C   0  0  0  0  0  0  0  0  0  0  0  0
    4.3099   -5.1800    0.0000 C   0  0  0  0  0  0  0  0  0  0  0  0
    3.6863   -4.6399    0.0000 O   0  0  0  0  0  0  0  0  0  0  0  0
    4.1540   -5.9901    0.0000 N   0  0  0  0  0  0  0  0  0  0  0  0
    4.7178   -6.5924    0.0000 C   0  0  0  0  0  0  0  0  0  0  0  0
    4.3192   -7.3147    0.0000 C   0  0  0  0  0  0  0  0  0  0  0  0
    3.5090   -7.1588    0.0000 C   0  0  0  0  0  0  0  0  0  0  0  0
    3.4070   -6.3402    0.0000 C   0  0  3  0  0  0  0  0  0  0  0  0
    2.6847   -5.9415    0.0000 C   0  0  2  0  0  0  0  0  0  0  0  0
    2.6687   -5.1167    0.0000 O   0  0  0  0  0  0  0  0  0  0  0  0
    1.9464   -4.7181    0.0000 C   0  0  0  0  0  0  0  0  0  0  0  0
    1.9783   -6.3678    0.0000 C   0  0  1  0  0  0  0  0  0  0  0  0
    1.9942   -7.1926    0.0000 C   0  0  0  0  0  0  0  0  0  0  0  0
    1.2560   -5.9691    0.0000 C   0  0  0  0  0  0  0  0  0  0  0  0
    1.2401   -5.1443    0.0000 O   0  0  0  0  0  0  0  0  0  0  0  0
    0.5496   -6.3954    0.0000 N   0  0  0  0  0  0  0  0  0  0  0  0
   -0.1727   -5.9967    0.0000 C   0  0  2  0  0  0  0  0  0  0  0  0
   -0.1886   -5.1719    0.0000 C   0  0  0  0  0  0  0  0  0  0  0  0
   -0.8790   -6.4230    0.0000 C   0  0  1  0  0  0  0  0  0  0  0  0
   -0.8631   -7.2478    0.0000 O   0  0  0  0  0  0  0  0  0  0  0  0
   -1.6014   -6.0243    0.0000 C   0  0  0  0  0  0  0  0  0  0  0  0
   -2.3077   -6.4506    0.0000 C   0  0  0  0  0  0  0  0  0  0  0  0
   -3.0300   -6.0519    0.0000 C   0  0  0  0  0  0  0  0  0  0  0  0
   -3.0460   -5.2271    0.0000 C   0  0  0  0  0  0  0  0  0  0  0  0
   -2.3396   -4.8009    0.0000 C   0  0  0  0  0  0  0  0  0  0  0  0
   -1.6173   -5.1995    0.0000 C   0  0  0  0  0  0  0  0  0  0  0  0
    5.5572   -6.2602    0.0000 O   0  0  0  0  0  0  0  0  0  0  0  0
    6.1809   -6.8003    0.0000 C   0  0  0  0  0  0  0  0  0  0  0  0
    7.1163   -5.7201    0.0000 N   0  0  0  0  0  0  0  0  0  0  0  0
    6.9604   -6.5302    0.0000 C   0  0  0  0  0  0  0  0  0  0  0  0
    7.8959   -5.4500    0.0000 C   0  0  0  0  0  0  0  0  0  0  0  0
    8.0518   -4.6399    0.0000 O   0  0  0  0  0  0  0  0  0  0  0  0
    8.5195   -5.9901    0.0000 C   0  0  1  0  0  0  0  0  0  0  0  0
    9.2991   -5.7201    0.0000 N   0  0  0  0  0  0  0  0  0  0  0  0
    9.9227   -6.2602    0.0000 C   0  0  0  0  0  0  0  0  0  0  0  0
    9.7668   -7.0703    0.0000 O   0  0  0  0  0  0  0  0  0  0  0  0
   10.7023   -5.9901    0.0000 C   0  0  1  0  0  0  0  0  0  0  0  0
   11.3259   -6.5302    0.0000 N   0  0  0  0  0  0  0  0  0  0  0  0
   12.1055   -6.2602    0.0000 C   0  0  0  0  0  0  0  0  0  0  0  0
   10.8582   -5.1800    0.0000 C   0  0  0  0  0  0  0  0  0  0  0  0
   10.2345   -4.6399    0.0000 C   0  0  0  0  0  0  0  0  0  0  0  0
   11.6377   -4.9099    0.0000 C   0  0  0  0  0  0  0  0  0  0  0  0
    8.3636   -6.8003    0.0000 C   0  0  0  0  0  0  0  0  0  0  0  0
    8.9873   -7.3403    0.0000 C   0  0  0  0  0  0  0  0  0  0  0  0
    7.5841   -7.0703    0.0000 C   0  0  0  0  0  0  0  0  0  0  0  0
  1  2  1  0  0  0  0
  2  3  1  0  0  0  0
  3  4  1  6  0  0  0
  3  5  1  0  0  0  0
  5  6  1  0  0  0  0
  5 35  1  6  0  0  0
  6  7  1  6  0  0  0
  6 33  1  0  0  0  0
  7  8  1  0  0  0  0
  8  9  2  0  0  0  0
  8 10  1  0  0  0  0
 10 11  1  0  0  0  0
 10 14  1  0  0  0  0
 11 12  1  0  0  0  0
 12 13  1  0  0  0  0
 13 14  1  0  0  0  0
 14 15  1  0  0  0  0
 15 16  1  1  0  0  0
 15 18  1  0  0  0  0
 16 17  1  0  0  0  0
 18 19  1  1  0  0  0
 18 20  1  0  0  0  0
 20 21  2  0  0  0  0
 20 22  1  0  0  0  0
 22 23  1  0  0  0  0
 23 24  1  1  0  0  0
 23 25  1  0  0  0  0
 25 26  1  1  0  0  0
 25 27  1  0  0  0  0
 27 28  2  0  0  0  0
 27 32  1  0  0  0  0
 28 29  1  0  0  0  0
 29 30  2  0  0  0  0
 30 31  1  0  0  0  0
 31 32  2  0  0  0  0
 33 34  1  0  0  0  0
 35 36  1  0  0  0  0
 35 37  1  0  0  0  0
 37 38  2  0  0  0  0
 39 37  1  1  0  0  0
 39 40  1  0  0  0  0
 39 49  1  0  0  0  0
 40 41  1  0  0  0  0
 41 42  2  0  0  0  0
 43 41  1  6  0  0  0
 43 44  1  0  0  0  0
 43 46  1  0  0  0  0
 44 45  1  0  0  0  0
 46 47  1  0  0  0  0
 46 48  1  0  0  0  0
 49 50  1  0  0  0  0
 49 51  1  0  0  0  0
M  END
>  <CdId>
259

>  <Formula>
C39H67N5O7

>  <ID>
T6897

>  <Name>
Monomethyl auristatin E

>  <Synonyms>
MMAE; Vedotin

>  <CAS>
474645-27-7

>  <MolWt>
717.98

>  <Pathways>
Cytoskeletal Signaling

>  <Target>
Microtubule Associated inhibitor

>  <Receptor>
microtubule

$$$$
