O-Acetyl-L-serine hydrochloride
 OpenBabel02212023462D

 11  9  0  0  1  0  0  0  0  0999 V2000
    0.0000    0.0000    0.0000 Cl  0  0  0  0  0  0  0  0  0  0  0  0
    2.2393    0.2888    0.0000 C   0  0  0  0  0  0  0  0  0  0  0  0
    2.9538   -0.1238    0.0000 C   0  0  0  0  0  0  0  0  0  0  0  0
    2.9538   -0.9487    0.0000 O   0  0  0  0  0  0  0  0  0  0  0  0
    3.6682    0.2887    0.0000 O   0  0  0  0  0  0  0  0  0  0  0  0
    4.3827   -0.1238    0.0000 C   0  0  0  0  0  0  0  0  0  0  0  0
    5.0972    0.2887    0.0000 C   0  0  2  0  0  0  0  0  0  0  0  0
    5.0972    1.1137    0.0000 N   0  0  0  0  0  0  0  0  0  0  0  0
    5.8116   -0.1238    0.0000 C   0  0  0  0  0  0  0  0  0  0  0  0
    6.5261    0.2887    0.0000 O   0  0  0  0  0  0  0  0  0  0  0  0
    5.8116   -0.9488    0.0000 O   0  0  0  0  0  0  0  0  0  0  0  0
  2  3  1  0  0  0  0
  3  4  2  0  0  0  0
  3  5  1  0  0  0  0
  5  6  1  0  0  0  0
  6  7  1  0  0  0  0
  7  8  1  6  0  0  0
  7  9  1  0  0  0  0
  9 10  1  0  0  0  0
  9 11  2  0  0  0  0
M  END
>  <CdId>
468

>  <Formula>
C5H10ClNO4

>  <ID>
T4722

>  <Name>
O-Acetyl-L-serine hydrochloride

>  <CAS>
66638-22-0

>  <Source>
Animal

>  <category>
Others

>  <MolWt>
183.59

>  <Pathways>
Others

>  <Target>
Others

>  <Receptor>
Others

$$$$
