Otenabant hydrochloride
 OpenBabel02212023462D

 36 39  0  0  0  0  0  0  0  0999 V2000
    0.0000    0.0000    0.0000 Cl  0  0  0  0  0  0  0  0  0  0  0  0
    6.5804    2.5932    0.0000 C   0  0  0  0  0  0  0  0  0  0  0  0
    7.2949    2.1807    0.0000 C   0  0  0  0  0  0  0  0  0  0  0  0
    7.2949    1.3557    0.0000 C   0  0  0  0  0  0  0  0  0  0  0  0
    6.5804    0.9432    0.0000 N   0  0  0  0  0  0  0  0  0  0  0  0
    5.8660    1.3557    0.0000 C   0  0  0  0  0  0  0  0  0  0  0  0
    5.8660    2.1807    0.0000 C   0  0  0  0  0  0  0  0  0  0  0  0
    6.5804    0.1182    0.0000 C   0  0  0  0  0  0  0  0  0  0  0  0
    7.2949   -0.2943    0.0000 N   0  0  0  0  0  0  0  0  0  0  0  0
    7.2949   -1.1193    0.0000 C   0  0  0  0  0  0  0  0  0  0  0  0
    6.5804   -1.5318    0.0000 N   0  0  0  0  0  0  0  0  0  0  0  0
    5.8660   -1.1193    0.0000 C   0  0  0  0  0  0  0  0  0  0  0  0
    5.8660   -0.2943    0.0000 C   0  0  0  0  0  0  0  0  0  0  0  0
    5.0814   -0.0394    0.0000 N   0  0  0  0  0  0  0  0  0  0  0  0
    4.5964   -0.7068    0.0000 C   0  0  0  0  0  0  0  0  0  0  0  0
    5.0814   -1.3742    0.0000 N   0  0  0  0  0  0  0  0  0  0  0  0
    4.8264   -2.1589    0.0000 C   0  0  0  0  0  0  0  0  0  0  0  0
    5.3784   -2.7720    0.0000 C   0  0  0  0  0  0  0  0  0  0  0  0
    5.1235   -3.5566    0.0000 C   0  0  0  0  0  0  0  0  0  0  0  0
    4.3165   -3.7281    0.0000 C   0  0  0  0  0  0  0  0  0  0  0  0
    3.7645   -3.1150    0.0000 C   0  0  0  0  0  0  0  0  0  0  0  0
    4.0194   -2.3304    0.0000 C   0  0  0  0  0  0  0  0  0  0  0  0
    4.0616   -4.5127    0.0000 Cl  0  0  0  0  0  0  0  0  0  0  0  0
    3.7714   -0.7068    0.0000 C   0  0  0  0  0  0  0  0  0  0  0  0
    3.3589   -1.4213    0.0000 C   0  0  0  0  0  0  0  0  0  0  0  0
    2.5339   -1.4213    0.0000 C   0  0  0  0  0  0  0  0  0  0  0  0
    2.1214   -0.7068    0.0000 C   0  0  0  0  0  0  0  0  0  0  0  0
    2.5339    0.0077    0.0000 C   0  0  0  0  0  0  0  0  0  0  0  0
    3.3589    0.0077    0.0000 C   0  0  0  0  0  0  0  0  0  0  0  0
    3.7714    0.7221    0.0000 Cl  0  0  0  0  0  0  0  0  0  0  0  0
    6.9678    3.3216    0.0000 N   0  0  0  0  0  0  0  0  0  0  0  0
    7.7923    3.3504    0.0000 C   0  0  0  0  0  0  0  0  0  0  0  0
    8.1796    4.0789    0.0000 C   0  0  0  0  0  0  0  0  0  0  0  0
    6.1931    3.3216    0.0000 C   0  0  0  0  0  0  0  0  0  0  0  0
    5.3686    3.3504    0.0000 O   0  0  0  0  0  0  0  0  0  0  0  0
    6.6303    4.0213    0.0000 N   0  0  0  0  0  0  0  0  0  0  0  0
  2  3  1  0  0  0  0
  2  7  1  0  0  0  0
  2 31  1  0  0  0  0
  2 34  1  0  0  0  0
  3  4  1  0  0  0  0
  4  5  1  0  0  0  0
  5  6  1  0  0  0  0
  5  8  1  0  0  0  0
  6  7  1  0  0  0  0
  8  9  2  0  0  0  0
  8 13  1  0  0  0  0
  9 10  1  0  0  0  0
 10 11  2  0  0  0  0
 11 12  1  0  0  0  0
 12 13  2  0  0  0  0
 12 16  1  0  0  0  0
 13 14  1  0  0  0  0
 14 15  2  0  0  0  0
 15 16  1  0  0  0  0
 15 24  1  0  0  0  0
 16 17  1  0  0  0  0
 17 18  2  0  0  0  0
 17 22  1  0  0  0  0
 18 19  1  0  0  0  0
 19 20  2  0  0  0  0
 20 21  1  0  0  0  0
 20 23  1  0  0  0  0
 21 22  2  0  0  0  0
 24 25  2  0  0  0  0
 24 29  1  0  0  0  0
 25 26  1  0  0  0  0
 26 27  2  0  0  0  0
 27 28  1  0  0  0  0
 28 29  2  0  0  0  0
 29 30  1  0  0  0  0
 31 32  1  0  0  0  0
 32 33  1  0  0  0  0
 34 35  2  0  0  0  0
 34 36  1  0  0  0  0
M  END
>  <CdId>
3825

>  <Formula>
C25H26Cl3N7O

>  <ID>
T1796

>  <Name>
Otenabant hydrochloride

>  <Synonyms>
CP 945598 Hydrochloride; Otenabant (CP-945598) HCl; Otenabant

>  <CAS>
686347-12-6

>  <MolWt>
546.88

>  <Pathways>
GPCR/G Protein

>  <Target>
Cannabinoid Receptor antagonist

>  <Receptor>
hCB1; hCB2; rCB1

$$$$
