Procyclidine hydrochloride
 OpenBabel02212023462D

 22 23  0  0  0  0  0  0  0  0999 V2000
    0.0000    0.0000    0.0000 Cl  0  0  0  0  0  0  0  0  0  0  0  0
    2.1288    0.2849    0.0000 O   0  0  0  0  0  0  0  0  0  0  0  0
    2.9538    0.2849    0.0000 C   0  0  3  0  0  0  0  0  0  0  0  0
    2.9538   -0.5401    0.0000 C   0  0  0  0  0  0  0  0  0  0  0  0
    3.6682   -0.9526    0.0000 C   0  0  0  0  0  0  0  0  0  0  0  0
    3.6682   -1.7776    0.0000 N   0  0  0  0  0  0  0  0  0  0  0  0
    4.3357   -2.2625    0.0000 C   0  0  0  0  0  0  0  0  0  0  0  0
    4.0807   -3.0471    0.0000 C   0  0  0  0  0  0  0  0  0  0  0  0
    3.2557   -3.0471    0.0000 C   0  0  0  0  0  0  0  0  0  0  0  0
    3.0008   -2.2625    0.0000 C   0  0  0  0  0  0  0  0  0  0  0  0
    2.9538    1.1099    0.0000 C   0  0  0  0  0  0  0  0  0  0  0  0
    2.2393    1.5224    0.0000 C   0  0  0  0  0  0  0  0  0  0  0  0
    2.2393    2.3474    0.0000 C   0  0  0  0  0  0  0  0  0  0  0  0
    2.9538    2.7599    0.0000 C   0  0  0  0  0  0  0  0  0  0  0  0
    3.6682    2.3474    0.0000 C   0  0  0  0  0  0  0  0  0  0  0  0
    3.6682    1.5224    0.0000 C   0  0  0  0  0  0  0  0  0  0  0  0
    3.7788    0.2849    0.0000 C   0  0  0  0  0  0  0  0  0  0  0  0
    4.1913    0.9994    0.0000 C   0  0  0  0  0  0  0  0  0  0  0  0
    5.0163    0.9994    0.0000 C   0  0  0  0  0  0  0  0  0  0  0  0
    5.4288    0.2849    0.0000 C   0  0  0  0  0  0  0  0  0  0  0  0
    5.0163   -0.4295    0.0000 C   0  0  0  0  0  0  0  0  0  0  0  0
    4.1913   -0.4295    0.0000 C   0  0  0  0  0  0  0  0  0  0  0  0
  2  3  1  0  0  0  0
  3  4  1  0  0  0  0
  3 11  1  0  0  0  0
  3 17  1  0  0  0  0
  4  5  1  0  0  0  0
  5  6  1  0  0  0  0
  6  7  1  0  0  0  0
  6 10  1  0  0  0  0
  7  8  1  0  0  0  0
  8  9  1  0  0  0  0
  9 10  1  0  0  0  0
 11 12  1  0  0  0  0
 11 16  1  0  0  0  0
 12 13  1  0  0  0  0
 13 14  1  0  0  0  0
 14 15  1  0  0  0  0
 15 16  1  0  0  0  0
 17 18  2  0  0  0  0
 17 22  1  0  0  0  0
 18 19  1  0  0  0  0
 19 20  2  0  0  0  0
 20 21  1  0  0  0  0
 21 22  2  0  0  0  0
M  END
>  <CdId>
1198

>  <Formula>
C19H30ClNO

>  <ID>
T4979

>  <Name>
Procyclidine hydrochloride

>  <Synonyms>
(¡À)-Procyclidine hydrochlorid

>  <CAS>
1508-76-5

>  <MolWt>
323.9

>  <Pathways>
Neuroscience

>  <Target>
NMDAR

>  <Receptor>
NMDA receptor

$$$$
