Rebeprazole sodium
 OpenBabel02212023462D

 26 27  0  0  0  0  0  0  0  0999 V2000
   -2.8193    1.0150    0.0000 C   0  0  0  0  0  0  0  0  0  0  0  0
   -3.2318    0.3006    0.0000 C   0  0  0  0  0  0  0  0  0  0  0  0
   -2.6798   -0.3125    0.0000 N   0  5  0  0  0  0  0  0  0  0  0  0
   -1.9261    0.0230    0.0000 C   0  0  0  0  0  0  0  0  0  0  0  0
   -2.0123    0.8435    0.0000 N   0  0  0  0  0  0  0  0  0  0  0  0
   -1.2116   -0.3895    0.0000 S   0  0  3  0  0  0  0  0  0  0  0  0
   -1.2116   -1.2145    0.0000 O   0  0  0  0  0  0  0  0  0  0  0  0
   -0.4971    0.0230    0.0000 C   0  0  0  0  0  0  0  0  0  0  0  0
    0.2173   -0.3895    0.0000 C   0  0  0  0  0  0  0  0  0  0  0  0
    0.9318    0.0230    0.0000 C   0  0  0  0  0  0  0  0  0  0  0  0
    1.6463   -0.3895    0.0000 C   0  0  0  0  0  0  0  0  0  0  0  0
    1.6463   -1.2145    0.0000 C   0  0  0  0  0  0  0  0  0  0  0  0
    0.9318   -1.6270    0.0000 C   0  0  0  0  0  0  0  0  0  0  0  0
    0.2173   -1.2145    0.0000 N   0  0  0  0  0  0  0  0  0  0  0  0
    2.3607    0.0230    0.0000 O   0  0  0  0  0  0  0  0  0  0  0  0
    3.0752   -0.3895    0.0000 C   0  0  0  0  0  0  0  0  0  0  0  0
    3.7897    0.0230    0.0000 C   0  0  0  0  0  0  0  0  0  0  0  0
    4.5042   -0.3895    0.0000 C   0  0  0  0  0  0  0  0  0  0  0  0
    5.2186    0.0230    0.0000 O   0  0  0  0  0  0  0  0  0  0  0  0
    5.9331   -0.3895    0.0000 C   0  0  0  0  0  0  0  0  0  0  0  0
    0.9318    0.8480    0.0000 C   0  0  0  0  0  0  0  0  0  0  0  0
   -4.0568    0.3006    0.0000 C   0  0  0  0  0  0  0  0  0  0  0  0
   -4.4693    1.0150    0.0000 C   0  0  0  0  0  0  0  0  0  0  0  0
   -4.0568    1.7295    0.0000 C   0  0  0  0  0  0  0  0  0  0  0  0
   -3.2318    1.7295    0.0000 C   0  0  0  0  0  0  0  0  0  0  0  0
    8.1724    0.0000    0.0000 Na  0  3  0  0  0 15  0  0  0  0  0  0
  1  2  2  0  0  0  0
  1  5  1  0  0  0  0
  1 25  1  0  0  0  0
  2  3  1  0  0  0  0
  2 22  1  0  0  0  0
  3  4  1  0  0  0  0
  4  5  2  0  0  0  0
  4  6  1  0  0  0  0
  6  7  2  0  0  0  0
  6  8  1  0  0  0  0
  8  9  1  0  0  0  0
  9 10  2  0  0  0  0
  9 14  1  0  0  0  0
 10 11  1  0  0  0  0
 10 21  1  0  0  0  0
 11 12  2  0  0  0  0
 11 15  1  0  0  0  0
 12 13  1  0  0  0  0
 13 14  2  0  0  0  0
 15 16  1  0  0  0  0
 16 17  1  0  0  0  0
 17 18  1  0  0  0  0
 18 19  1  0  0  0  0
 19 20  1  0  0  0  0
 22 23  2  0  0  0  0
 23 24  1  0  0  0  0
 24 25  2  0  0  0  0
M  CHG  2   3  -1  26   1
M  END
>  <CdId>
951

>  <Mol Weight>
381.424

>  <Formula>
C18H20N3NaO3S

>  <ID>
T1651

>  <Name>
Rebeprazole sodium

>  <Synonyms>
Aciphex Sodium;Dexrabeprazole Sodium;Habeprazole Sodium

>  <CAS>
117976-90-6

>  <Approved status>
FDA

>  <Disease>
Digestive system

>  <Indication>
Peptic?Ulcer; Gastro-Esophageal Reflux Disease

>  <Pathways>
Membrane transporter/Ion channel

>  <Target>
Proton pump inhibitor

>  <Receptor>
Proton pump

$$$$
