RO4929097
 OpenBabel02212023462D

 33 35  0  0  1  0  0  0  0  0999 V2000
    4.1704   -6.1295    0.0000 C   0  0  0  0  0  0  0  0  0  0  0  0
    4.5829   -5.4151    0.0000 C   0  0  0  0  0  0  0  0  0  0  0  0
    4.9954   -4.7006    0.0000 C   0  0  0  0  0  0  0  0  0  0  0  0
    3.8684   -5.0026    0.0000 C   0  0  0  0  0  0  0  0  0  0  0  0
    3.8684   -4.1776    0.0000 O   0  0  0  0  0  0  0  0  0  0  0  0
    3.1539   -5.4151    0.0000 N   0  0  0  0  0  0  0  0  0  0  0  0
    2.4395   -5.0026    0.0000 C   0  0  0  0  0  0  0  0  0  0  0  0
    1.7250   -5.4151    0.0000 C   0  0  0  0  0  0  0  0  0  0  0  0
    2.1375   -6.1295    0.0000 F   0  0  0  0  0  0  0  0  0  0  0  0
    1.3125   -4.7006    0.0000 F   0  0  0  0  0  0  0  0  0  0  0  0
    1.0105   -5.8276    0.0000 C   0  0  0  0  0  0  0  0  0  0  0  0
    0.2961   -6.2401    0.0000 F   0  0  0  0  0  0  0  0  0  0  0  0
    1.4230   -6.5420    0.0000 F   0  0  0  0  0  0  0  0  0  0  0  0
    0.5980   -5.1131    0.0000 F   0  0  0  0  0  0  0  0  0  0  0  0
    5.2974   -5.8276    0.0000 C   0  0  0  0  0  0  0  0  0  0  0  0
    5.2974   -6.6526    0.0000 O   0  0  0  0  0  0  0  0  0  0  0  0
    6.0118   -5.4151    0.0000 N   0  0  0  0  0  0  0  0  0  0  0  0
    6.7263   -5.8276    0.0000 C   0  0  1  0  0  0  0  0  0  0  0  0
    7.4079   -5.3628    0.0000 C   0  0  0  0  0  0  0  0  0  0  0  0
    7.2244   -4.5585    0.0000 C   0  0  0  0  0  0  0  0  0  0  0  0
    7.8291   -3.9974    0.0000 C   0  0  0  0  0  0  0  0  0  0  0  0
    8.6175   -4.2405    0.0000 C   0  0  0  0  0  0  0  0  0  0  0  0
    8.8011   -5.0449    0.0000 C   0  0  0  0  0  0  0  0  0  0  0  0
    8.1963   -5.6060    0.0000 C   0  0  0  0  0  0  0  0  0  0  0  0
    8.4977   -6.3740    0.0000 C   0  0  0  0  0  0  0  0  0  0  0  0
    9.3227   -6.3740    0.0000 C   0  0  0  0  0  0  0  0  0  0  0  0
    9.7352   -7.0884    0.0000 C   0  0  0  0  0  0  0  0  0  0  0  0
    9.3227   -7.8029    0.0000 C   0  0  0  0  0  0  0  0  0  0  0  0
    8.4977   -7.8029    0.0000 C   0  0  0  0  0  0  0  0  0  0  0  0
    8.0852   -7.0884    0.0000 C   0  0  0  0  0  0  0  0  0  0  0  0
    7.2694   -7.2114    0.0000 N   0  0  0  0  0  0  0  0  0  0  0  0
    6.6646   -6.6503    0.0000 C   0  0  0  0  0  0  0  0  0  0  0  0
    5.8967   -6.9517    0.0000 O   0  0  0  0  0  0  0  0  0  0  0  0
  1  2  1  0  0  0  0
  2  3  1  0  0  0  0
  2  4  1  0  0  0  0
  2 15  1  0  0  0  0
  4  5  2  0  0  0  0
  4  6  1  0  0  0  0
  6  7  1  0  0  0  0
  7  8  1  0  0  0  0
  8  9  1  0  0  0  0
  8 10  1  0  0  0  0
  8 11  1  0  0  0  0
 11 12  1  0  0  0  0
 11 13  1  0  0  0  0
 11 14  1  0  0  0  0
 15 16  2  0  0  0  0
 15 17  1  0  0  0  0
 18 17  1  1  0  0  0
 18 19  1  0  0  0  0
 18 32  1  0  0  0  0
 19 20  2  0  0  0  0
 19 24  1  0  0  0  0
 20 21  1  0  0  0  0
 21 22  2  0  0  0  0
 22 23  1  0  0  0  0
 23 24  2  0  0  0  0
 24 25  1  0  0  0  0
 25 26  2  0  0  0  0
 25 30  1  0  0  0  0
 26 27  1  0  0  0  0
 27 28  2  0  0  0  0
 28 29  1  0  0  0  0
 29 30  2  0  0  0  0
 30 31  1  0  0  0  0
 31 32  1  0  0  0  0
 32 33  2  0  0  0  0
M  END
>  <CdId>
629

>  <Formula>
C22H20F5N3O3

>  <ID>
T6274

>  <Name>
RO4929097

>  <Synonyms>
RG-4733

>  <CAS>
847925-91-1

>  <MolWt>
469.4

>  <Pathways>
Neuroscience; Proteases/Proteasome; Stem Cells

>  <Target>
Gamma-secretase

>  <Receptor>
A¦Â40; ¦Ã secretase; Notch

$$$$
