Ro 31-8220 Mesylate
 OpenBabel02212023462D

 38 41  0  0  0  0  0  0  0  0999 V2000
   -1.6807    0.8634    0.0000 C   0  0  0  0  0  0  0  0  0  0  0  0
   -1.4257    0.0788    0.0000 N   0  0  0  0  0  0  0  0  0  0  0  0
   -0.6411   -0.1761    0.0000 C   0  0  0  0  0  0  0  0  0  0  0  0
   -0.6411   -1.0011    0.0000 C   0  0  0  0  0  0  0  0  0  0  0  0
   -1.4257   -1.2561    0.0000 C   0  0  0  0  0  0  0  0  0  0  0  0
   -1.7613   -2.0098    0.0000 C   0  0  0  0  0  0  0  0  0  0  0  0
   -2.5818   -2.0960    0.0000 C   0  0  0  0  0  0  0  0  0  0  0  0
   -3.0667   -1.4285    0.0000 C   0  0  0  0  0  0  0  0  0  0  0  0
   -2.7311   -0.6749    0.0000 C   0  0  0  0  0  0  0  0  0  0  0  0
   -1.9106   -0.5886    0.0000 C   0  0  0  0  0  0  0  0  0  0  0  0
    0.0263   -1.4861    0.0000 C   0  0  0  0  0  0  0  0  0  0  0  0
    0.8110   -1.2311    0.0000 C   0  0  0  0  0  0  0  0  0  0  0  0
    1.2959   -1.8986    0.0000 C   0  0  0  0  0  0  0  0  0  0  0  0
    2.1209   -1.8986    0.0000 O   0  0  0  0  0  0  0  0  0  0  0  0
    0.8110   -2.5660    0.0000 N   0  0  0  0  0  0  0  0  0  0  0  0
    0.0263   -2.3111    0.0000 C   0  0  0  0  0  0  0  0  0  0  0  0
   -0.6411   -2.7960    0.0000 O   0  0  0  0  0  0  0  0  0  0  0  0
    1.0659   -0.4465    0.0000 C   0  0  0  0  0  0  0  0  0  0  0  0
    0.5810    0.2209    0.0000 C   0  0  0  0  0  0  0  0  0  0  0  0
    1.0659    0.8884    0.0000 N   0  0  0  0  0  0  0  0  0  0  0  0
    1.8505    0.6334    0.0000 C   0  0  0  0  0  0  0  0  0  0  0  0
    2.5650    1.0459    0.0000 C   0  0  0  0  0  0  0  0  0  0  0  0
    3.2795    0.6334    0.0000 C   0  0  0  0  0  0  0  0  0  0  0  0
    3.2795   -0.1916    0.0000 C   0  0  0  0  0  0  0  0  0  0  0  0
    2.5650   -0.6041    0.0000 C   0  0  0  0  0  0  0  0  0  0  0  0
    1.8505   -0.1916    0.0000 C   0  0  0  0  0  0  0  0  0  0  0  0
    0.8110    1.6730    0.0000 C   0  0  0  0  0  0  0  0  0  0  0  0
    0.0040    1.8445    0.0000 C   0  0  0  0  0  0  0  0  0  0  0  0
   -0.2509    2.6291    0.0000 C   0  0  0  0  0  0  0  0  0  0  0  0
   -1.0579    2.8007    0.0000 S   0  0  0  0  0  0  0  0  0  0  0  0
   -1.3129    3.5853    0.0000 C   0  0  0  0  0  0  0  0  0  0  0  0
   -2.1198    3.7568    0.0000 N   0  0  0  0  0  0  0  0  0  0  0  0
   -0.7608    4.1984    0.0000 N   0  0  0  0  0  0  0  0  0  0  0  0
    6.2259   -0.8250    0.0000 C   0  0  0  0  0  0  0  0  0  0  0  0
    6.2259    0.0000    0.0000 S   0  0  0  0  0  0  0  0  0  0  0  0
    6.2259    0.8250    0.0000 O   0  0  0  0  0  0  0  0  0  0  0  0
    7.0509   -0.0000    0.0000 O   0  0  0  0  0  0  0  0  0  0  0  0
    5.4009    0.0000    0.0000 O   0  0  0  0  0  0  0  0  0  0  0  0
  1  2  1  0  0  0  0
  2  3  1  0  0  0  0
  2 10  1  0  0  0  0
  3  4  2  0  0  0  0
  4  5  1  0  0  0  0
  4 11  1  0  0  0  0
  5  6  2  0  0  0  0
  5 10  1  0  0  0  0
  6  7  1  0  0  0  0
  7  8  2  0  0  0  0
  8  9  1  0  0  0  0
  9 10  2  0  0  0  0
 11 12  2  0  0  0  0
 11 16  1  0  0  0  0
 12 13  1  0  0  0  0
 12 18  1  0  0  0  0
 13 14  2  0  0  0  0
 13 15  1  0  0  0  0
 15 16  1  0  0  0  0
 16 17  2  0  0  0  0
 18 19  2  0  0  0  0
 18 26  1  0  0  0  0
 19 20  1  0  0  0  0
 20 21  1  0  0  0  0
 20 27  1  0  0  0  0
 21 22  2  0  0  0  0
 21 26  1  0  0  0  0
 22 23  1  0  0  0  0
 23 24  2  0  0  0  0
 24 25  1  0  0  0  0
 25 26  2  0  0  0  0
 27 28  1  0  0  0  0
 28 29  1  0  0  0  0
 29 30  1  0  0  0  0
 30 31  1  0  0  0  0
 31 32  2  0  0  0  0
 31 33  1  0  0  0  0
 34 35  1  0  0  0  0
 35 36  2  0  0  0  0
 35 37  2  0  0  0  0
 35 38  1  0  0  0  0
M  END
>  <CdId>
415

>  <Formula>
C26H27N5O5S2

>  <ID>
T6643

>  <Name>
Ro 31-8220 Mesylate

>  <Synonyms>
Bisindolylmaleimide IX mesylate; Ro 31-8220 methanesulfonate; Bisindolylmaleimide IX

>  <CAS>
138489-18-6

>  <MolWt>
553.65

>  <Pathways>
Cytoskeletal Signaling

>  <Target>
PKC inhibitor

>  <Receptor>
PKC¦Á; PKC¦Â1; PKC¦Â2; PKC¦Ã; PKC¦Å

$$$$
