Semagacestat
 OpenBabel02212023462D

 26 27  0  0  1  0  0  0  0  0999 V2000
    1.8904   -2.1437    0.0000 C   0  0  0  0  0  0  0  0  0  0  0  0
    1.8904   -1.3187    0.0000 C   0  0  1  0  0  0  0  0  0  0  0  0
    1.1759   -0.9062    0.0000 C   0  0  0  0  0  0  0  0  0  0  0  0
    1.1759   -0.0812    0.0000 O   0  0  0  0  0  0  0  0  0  0  0  0
    0.4614   -1.3187    0.0000 N   0  0  0  0  0  0  0  0  0  0  0  0
   -0.2530   -0.9062    0.0000 C   0  0  1  0  0  0  0  0  0  0  0  0
   -0.9347   -1.3709    0.0000 C   0  0  0  0  0  0  0  0  0  0  0  0
   -0.7511   -2.1752    0.0000 C   0  0  0  0  0  0  0  0  0  0  0  0
   -1.3559   -2.7364    0.0000 C   0  0  0  0  0  0  0  0  0  0  0  0
   -2.1442   -2.4932    0.0000 C   0  0  0  0  0  0  0  0  0  0  0  0
   -2.3278   -1.6889    0.0000 C   0  0  0  0  0  0  0  0  0  0  0  0
   -1.7230   -1.1278    0.0000 C   0  0  0  0  0  0  0  0  0  0  0  0
   -2.0244   -0.3598    0.0000 C   0  0  0  0  0  0  0  0  0  0  0  0
   -1.6119    0.3547    0.0000 C   0  0  0  0  0  0  0  0  0  0  0  0
   -0.7962    0.4776    0.0000 N   0  0  0  0  0  0  0  0  0  0  0  0
   -0.1914   -0.0835    0.0000 C   0  0  0  0  0  0  0  0  0  0  0  0
    0.5766    0.2179    0.0000 O   0  0  0  0  0  0  0  0  0  0  0  0
   -0.5530    1.2660    0.0000 C   0  0  0  0  0  0  0  0  0  0  0  0
    2.6048   -0.9062    0.0000 N   0  0  0  0  0  0  0  0  0  0  0  0
    3.3193   -1.3187    0.0000 C   0  0  0  0  0  0  0  0  0  0  0  0
    3.3193   -2.1437    0.0000 O   0  0  0  0  0  0  0  0  0  0  0  0
    4.0338   -0.9062    0.0000 C   0  0  2  0  0  0  0  0  0  0  0  0
    4.7483   -1.3187    0.0000 C   0  0  0  0  0  0  0  0  0  0  0  0
    5.4627   -0.9062    0.0000 C   0  0  0  0  0  0  0  0  0  0  0  0
    4.7483   -2.1437    0.0000 C   0  0  0  0  0  0  0  0  0  0  0  0
    4.0338   -0.0812    0.0000 O   0  0  0  0  0  0  0  0  0  0  0  0
  2  1  1  1  0  0  0
  2  3  1  0  0  0  0
  2 19  1  0  0  0  0
  3  4  2  0  0  0  0
  3  5  1  0  0  0  0
  6  5  1  1  0  0  0
  6  7  1  0  0  0  0
  6 16  1  0  0  0  0
  7  8  2  0  0  0  0
  7 12  1  0  0  0  0
  8  9  1  0  0  0  0
  9 10  2  0  0  0  0
 10 11  1  0  0  0  0
 11 12  2  0  0  0  0
 12 13  1  0  0  0  0
 13 14  1  0  0  0  0
 14 15  1  0  0  0  0
 15 16  1  0  0  0  0
 15 18  1  0  0  0  0
 16 17  2  0  0  0  0
 19 20  1  0  0  0  0
 20 21  2  0  0  0  0
 20 22  1  0  0  0  0
 22 23  1  0  0  0  0
 22 26  1  1  0  0  0
 23 24  1  0  0  0  0
 23 25  1  0  0  0  0
M  END
>  <CdId>
743

>  <Formula>
C19H27N3O4

>  <ID>
T6125

>  <Name>
Semagacestat

>  <Synonyms>
LY450139

>  <CAS>
425386-60-3

>  <MolWt>
361.44

>  <Pathways>
Neuroscience; Proteases/Proteasome; Stem Cells

>  <Target>
Gamma-secretase inhibitor

>  <Receptor>
Notch; ¦Ã secretase(A¦Â38); ¦Ã secretase(A¦Â40); ¦Ã secretase(A¦Â42)

$$$$
