Spermidine hydrochloride
 OpenBabel02212023462D

 13  9  0  0  0  0  0  0  0  0999 V2000
    0.0000    0.0000    0.0000 Cl  0  0  0  0  0  0  0  0  0  0  0  0
    2.2393    0.0000    0.0000 Cl  0  0  0  0  0  0  0  0  0  0  0  0
    0.0000   -1.8563    0.0000 Cl  0  0  0  0  0  0  0  0  0  0  0  0
    2.2393   -2.0625    0.0000 N   0  0  0  0  0  0  0  0  0  0  0  0
    2.9538   -1.6500    0.0000 C   0  0  0  0  0  0  0  0  0  0  0  0
    3.6682   -2.0625    0.0000 C   0  0  0  0  0  0  0  0  0  0  0  0
    4.3827   -1.6500    0.0000 C   0  0  0  0  0  0  0  0  0  0  0  0
    5.0972   -2.0625    0.0000 C   0  0  0  0  0  0  0  0  0  0  0  0
    5.8116   -1.6500    0.0000 N   0  0  0  0  0  0  0  0  0  0  0  0
    6.5261   -2.0625    0.0000 C   0  0  0  0  0  0  0  0  0  0  0  0
    7.2406   -1.6500    0.0000 C   0  0  0  0  0  0  0  0  0  0  0  0
    7.9551   -2.0625    0.0000 C   0  0  0  0  0  0  0  0  0  0  0  0
    8.6695   -1.6500    0.0000 N   0  0  0  0  0  0  0  0  0  0  0  0
  4  5  1  0  0  0  0
  5  6  1  0  0  0  0
  6  7  1  0  0  0  0
  7  8  1  0  0  0  0
  8  9  1  0  0  0  0
  9 10  1  0  0  0  0
 10 11  1  0  0  0  0
 11 12  1  0  0  0  0
 12 13  1  0  0  0  0
M  END
>  <CdId>
1077

>  <Formula>
C7H22Cl3N3

>  <ID>
T5080

>  <Name>
Spermidine hydrochloride

>  <Synonyms>
Spermidine trihydrochloride; 4-Azaoctamethylenediamine trihydrochloride

>  <CAS>
334-50-9

>  <MolWt>
254.62

>  <Pathways>
Neuroscience; Autophagy

>  <Target>
NMDAR; Autophagy

>  <Receptor>
NMDA receptor; Autophagy

$$$$
