SSD114 hydrochloride
 OpenBabel02212023462D

 26 27  0  0  0  0  0  0  0  0999 V2000
    0.0000    0.0000    0.0000 Cl  0  0  0  0  0  0  0  0  0  0  0  0
    5.0972    2.5905    0.0000 C   0  0  0  0  0  0  0  0  0  0  0  0
    5.8116    2.1780    0.0000 O   0  0  0  0  0  0  0  0  0  0  0  0
    5.8116    1.3530    0.0000 C   0  0  0  0  0  0  0  0  0  0  0  0
    6.5261    0.9405    0.0000 C   0  0  0  0  0  0  0  0  0  0  0  0
    6.5261    0.1155    0.0000 C   0  0  0  0  0  0  0  0  0  0  0  0
    5.8116   -0.2970    0.0000 N   0  0  0  0  0  0  0  0  0  0  0  0
    5.0972    0.1155    0.0000 C   0  0  0  0  0  0  0  0  0  0  0  0
    4.3827   -0.2970    0.0000 N   0  0  0  0  0  0  0  0  0  0  0  0
    3.6682    0.1155    0.0000 C   0  0  0  0  0  0  0  0  0  0  0  0
    2.9538   -0.2970    0.0000 C   0  0  0  0  0  0  0  0  0  0  0  0
    2.2393    0.1155    0.0000 C   0  0  0  0  0  0  0  0  0  0  0  0
    2.2393    0.9405    0.0000 C   0  0  0  0  0  0  0  0  0  0  0  0
    2.9538    1.3530    0.0000 C   0  0  0  0  0  0  0  0  0  0  0  0
    3.6682    0.9405    0.0000 C   0  0  0  0  0  0  0  0  0  0  0  0
    5.0972    0.9405    0.0000 N   0  0  0  0  0  0  0  0  0  0  0  0
    7.2406   -0.2970    0.0000 C   0  0  0  0  0  0  0  0  0  0  0  0
    7.9551    0.1155    0.0000 C   0  0  0  0  0  0  0  0  0  0  0  0
    8.6695   -0.2970    0.0000 C   0  0  0  0  0  0  0  0  0  0  0  0
    8.6695   -1.1220    0.0000 C   0  0  0  0  0  0  0  0  0  0  0  0
    7.9551   -1.5345    0.0000 C   0  0  0  0  0  0  0  0  0  0  0  0
    7.2406   -1.1220    0.0000 C   0  0  0  0  0  0  0  0  0  0  0  0
    9.3840   -1.5345    0.0000 C   0  0  0  0  0  0  0  0  0  0  0  0
   10.0985   -1.9470    0.0000 F   0  0  0  0  0  0  0  0  0  0  0  0
    8.9715   -2.2490    0.0000 F   0  0  0  0  0  0  0  0  0  0  0  0
    9.7965   -0.8200    0.0000 F   0  0  0  0  0  0  0  0  0  0  0  0
  2  3  1  0  0  0  0
  3  4  1  0  0  0  0
  4  5  2  0  0  0  0
  4 16  1  0  0  0  0
  5  6  1  0  0  0  0
  6  7  2  0  0  0  0
  6 17  1  0  0  0  0
  7  8  1  0  0  0  0
  8  9  1  0  0  0  0
  8 16  2  0  0  0  0
  9 10  1  0  0  0  0
 10 11  1  0  0  0  0
 10 15  1  0  0  0  0
 11 12  1  0  0  0  0
 12 13  1  0  0  0  0
 13 14  1  0  0  0  0
 14 15  1  0  0  0  0
 17 18  2  0  0  0  0
 17 22  1  0  0  0  0
 18 19  1  0  0  0  0
 19 20  2  0  0  0  0
 20 21  1  0  0  0  0
 20 23  1  0  0  0  0
 21 22  2  0  0  0  0
 23 24  1  0  0  0  0
 23 25  1  0  0  0  0
 23 26  1  0  0  0  0
M  END
>  <CdId>
1487

>  <Formula>
C18H21ClF3N3O

>  <ID>
T4522

>  <Name>
SSD114 hydrochloride

>  <CAS>
T4522

>  <MolWt>
387.83

>  <Pathways>
Membrane transporter/Ion channel

>  <Target>
GABA Receptor modulator

>  <Receptor>
GABAB

$$$$
