Tetraethylenepentamine Pentahydrochloride
 OpenBabel02212023462D

 18 12  0  0  0  0  0  0  0  0999 V2000
    0.0000    0.0000    0.0000 Cl  0  0  0  0  0  0  0  0  0  0  0  0
    2.2393    0.0000    0.0000 Cl  0  0  0  0  0  0  0  0  0  0  0  0
    4.4786    0.0000    0.0000 Cl  0  0  0  0  0  0  0  0  0  0  0  0
    0.0000   -1.8404    0.0000 Cl  0  0  0  0  0  0  0  0  0  0  0  0
    2.2393   -1.8404    0.0000 Cl  0  0  0  0  0  0  0  0  0  0  0  0
    4.4786   -1.6500    0.0000 N   0  0  0  0  0  0  0  0  0  0  0  0
    5.1930   -2.0625    0.0000 C   0  0  0  0  0  0  0  0  0  0  0  0
    5.9075   -1.6500    0.0000 C   0  0  0  0  0  0  0  0  0  0  0  0
    6.6220   -2.0625    0.0000 N   0  0  0  0  0  0  0  0  0  0  0  0
    7.3365   -1.6500    0.0000 C   0  0  0  0  0  0  0  0  0  0  0  0
    8.0509   -2.0625    0.0000 C   0  0  0  0  0  0  0  0  0  0  0  0
    8.7654   -1.6500    0.0000 N   0  0  0  0  0  0  0  0  0  0  0  0
    9.4799   -2.0625    0.0000 C   0  0  0  0  0  0  0  0  0  0  0  0
   10.1943   -1.6500    0.0000 C   0  0  0  0  0  0  0  0  0  0  0  0
   10.9088   -2.0625    0.0000 N   0  0  0  0  0  0  0  0  0  0  0  0
   11.6233   -1.6500    0.0000 C   0  0  0  0  0  0  0  0  0  0  0  0
   12.3378   -2.0625    0.0000 C   0  0  0  0  0  0  0  0  0  0  0  0
   13.0522   -1.6500    0.0000 N   0  0  0  0  0  0  0  0  0  0  0  0
  6  7  1  0  0  0  0
  7  8  1  0  0  0  0
  8  9  1  0  0  0  0
  9 10  1  0  0  0  0
 10 11  1  0  0  0  0
 11 12  1  0  0  0  0
 12 13  1  0  0  0  0
 13 14  1  0  0  0  0
 14 15  1  0  0  0  0
 15 16  1  0  0  0  0
 16 17  1  0  0  0  0
 17 18  1  0  0  0  0
M  END
>  <CdId>
3436

>  <Formula>
C8H28Cl5N5

>  <ID>
T2229

>  <Name>
Tetraethylenepentamine Pentahydrochloride

>  <CAS>
4961-41-5

>  <MolWt>
371.61

>  <Pathways>
Others

>  <Target>
Others

>  <Receptor>
iron

$$$$
