VU 0357017 hydrochloride
 OpenBabel02212023462D

 25 25  0  0  0  0  0  0  0  0999 V2000
   -4.1380   -2.7328    0.0000 C   0  0  0  0  0  0  0  0  0  0  0  0
   -4.1380   -1.9078    0.0000 C   0  0  0  0  0  0  0  0  0  0  0  0
   -3.4235   -1.4953    0.0000 O   0  0  0  0  0  0  0  0  0  0  0  0
   -3.4235   -0.6703    0.0000 C   0  0  0  0  0  0  0  0  0  0  0  0
   -4.1380   -0.2578    0.0000 O   0  0  0  0  0  0  0  0  0  0  0  0
   -2.7090   -0.2578    0.0000 N   0  0  0  0  0  0  0  0  0  0  0  0
   -2.7090    0.5672    0.0000 C   0  0  0  0  0  0  0  0  0  0  0  0
   -1.9946    0.9797    0.0000 C   0  0  0  0  0  0  0  0  0  0  0  0
   -1.2801    0.5672    0.0000 C   0  0  0  0  0  0  0  0  0  0  0  0
   -1.2801   -0.2578    0.0000 C   0  0  0  0  0  0  0  0  0  0  0  0
   -1.9946   -0.6703    0.0000 C   0  0  0  0  0  0  0  0  0  0  0  0
   -0.5656    0.9797    0.0000 N   0  0  0  0  0  0  0  0  0  0  0  0
    0.1488    0.5672    0.0000 C   0  0  0  0  0  0  0  0  0  0  0  0
    0.8633    0.9797    0.0000 C   0  0  0  0  0  0  0  0  0  0  0  0
    1.5778    0.5672    0.0000 N   0  0  0  0  0  0  0  0  0  0  0  0
    2.2923    0.9797    0.0000 C   0  0  0  0  0  0  0  0  0  0  0  0
    2.2923    1.8047    0.0000 O   0  0  0  0  0  0  0  0  0  0  0  0
    3.0067    0.5672    0.0000 C   0  0  0  0  0  0  0  0  0  0  0  0
    3.7212    0.9797    0.0000 C   0  0  0  0  0  0  0  0  0  0  0  0
    4.4357    0.5672    0.0000 C   0  0  0  0  0  0  0  0  0  0  0  0
    4.4357   -0.2578    0.0000 C   0  0  0  0  0  0  0  0  0  0  0  0
    3.7212   -0.6703    0.0000 C   0  0  0  0  0  0  0  0  0  0  0  0
    3.0067   -0.2578    0.0000 C   0  0  0  0  0  0  0  0  0  0  0  0
    2.2923   -0.6703    0.0000 C   0  0  0  0  0  0  0  0  0  0  0  0
    6.6750    0.0000    0.0000 Cl  0  0  0  0  0  0  0  0  0  0  0  0
  1  2  1  0  0  0  0
  2  3  1  0  0  0  0
  3  4  1  0  0  0  0
  4  5  2  0  0  0  0
  4  6  1  0  0  0  0
  6  7  1  0  0  0  0
  6 11  1  0  0  0  0
  7  8  1  0  0  0  0
  8  9  1  0  0  0  0
  9 10  1  0  0  0  0
  9 12  1  0  0  0  0
 10 11  1  0  0  0  0
 12 13  1  0  0  0  0
 13 14  1  0  0  0  0
 14 15  1  0  0  0  0
 15 16  1  0  0  0  0
 16 17  2  0  0  0  0
 16 18  1  0  0  0  0
 18 19  2  0  0  0  0
 18 23  1  0  0  0  0
 19 20  1  0  0  0  0
 20 21  2  0  0  0  0
 21 22  1  0  0  0  0
 22 23  2  0  0  0  0
 23 24  1  0  0  0  0
M  END
>  <CdId>
2220

>  <Formula>
C18H28ClN3O3

>  <ID>
T3619

>  <Name>
VU 0357017 hydrochloride

>  <Synonyms>
CID-25010775; ML071 hydrochloride

>  <CAS>
1135242-13-5

>  <MolWt>
369.89

>  <Pathways>
Neuroscience

>  <Target>
AChR inhibitor

>  <Receptor>
M1 mAChR

$$$$
