WIN 55,212-2 Mesylate
 OpenBabel02212023462D

 37 41  0  0  1  0  0  0  0  0999 V2000
    0.0000   -0.8250    0.0000 C   0  0  0  0  0  0  0  0  0  0  0  0
    0.0000    0.0000    0.0000 S   0  0  0  0  0  0  0  0  0  0  0  0
    0.0000    0.8250    0.0000 O   0  0  0  0  0  0  0  0  0  0  0  0
    0.8250   -0.0000    0.0000 O   0  0  0  0  0  0  0  0  0  0  0  0
   -0.8250    0.0000    0.0000 O   0  0  0  0  0  0  0  0  0  0  0  0
    6.4616    1.7988    0.0000 O   0  0  0  0  0  0  0  0  0  0  0  0
    6.8077    1.0499    0.0000 C   0  0  0  0  0  0  0  0  0  0  0  0
    7.6293    0.9752    0.0000 C   0  0  0  0  0  0  0  0  0  0  0  0
    8.1048    1.6493    0.0000 C   0  0  0  0  0  0  0  0  0  0  0  0
    8.9264    1.5746    0.0000 C   0  0  0  0  0  0  0  0  0  0  0  0
    9.2725    0.8257    0.0000 C   0  0  0  0  0  0  0  0  0  0  0  0
    8.7970    0.1516    0.0000 C   0  0  0  0  0  0  0  0  0  0  0  0
    9.1431   -0.5973    0.0000 C   0  0  0  0  0  0  0  0  0  0  0  0
    8.6676   -1.2715    0.0000 C   0  0  0  0  0  0  0  0  0  0  0  0
    7.8460   -1.1968    0.0000 C   0  0  0  0  0  0  0  0  0  0  0  0
    7.4999   -0.4479    0.0000 C   0  0  0  0  0  0  0  0  0  0  0  0
    7.9754    0.2263    0.0000 C   0  0  0  0  0  0  0  0  0  0  0  0
    6.3322    0.3757    0.0000 C   0  0  0  0  0  0  0  0  0  0  0  0
    6.6376   -0.4815    0.0000 C   0  0  0  0  0  0  0  0  0  0  0  0
    7.3501   -0.8940    0.0000 C   0  0  0  0  0  0  0  0  0  0  0  0
    7.3501   -1.7190    0.0000 C   0  0  0  0  0  0  0  0  0  0  0  0
    6.6376   -2.1315    0.0000 C   0  0  0  0  0  0  0  0  0  0  0  0
    5.9197   -1.7190    0.0000 C   0  0  0  0  0  0  0  0  0  0  0  0
    5.2072   -2.1315    0.0000 O   0  0  0  0  0  0  0  0  0  0  0  0
    4.4947   -1.7190    0.0000 C   0  0  0  0  0  0  0  0  0  0  0  0
    4.4947   -0.8940    0.0000 C   0  0  1  0  0  0  0  0  0  0  0  0
    3.7800   -0.4819    0.0000 C   0  0  0  0  0  0  0  0  0  0  0  0
    3.7795    0.3431    0.0000 N   0  0  0  0  0  0  0  0  0  0  0  0
    3.0648    0.7552    0.0000 C   0  0  0  0  0  0  0  0  0  0  0  0
    3.0643    1.5802    0.0000 C   0  0  0  0  0  0  0  0  0  0  0  0
    3.7785    1.9931    0.0000 O   0  0  0  0  0  0  0  0  0  0  0  0
    4.4932    1.5810    0.0000 C   0  0  0  0  0  0  0  0  0  0  0  0
    4.4937    0.7560    0.0000 C   0  0  0  0  0  0  0  0  0  0  0  0
    5.2072   -0.4815    0.0000 N   0  0  0  0  0  0  0  0  0  0  0  0
    5.9197   -0.8940    0.0000 C   0  0  0  0  0  0  0  0  0  0  0  0
    5.5072    0.3757    0.0000 C   0  0  0  0  0  0  0  0  0  0  0  0
    5.0298    1.0485    0.0000 C   0  0  0  0  0  0  0  0  0  0  0  0
  1  2  1  0  0  0  0
  2  3  2  0  0  0  0
  2  4  2  0  0  0  0
  2  5  1  0  0  0  0
  6  7  2  0  0  0  0
  7  8  1  0  0  0  0
  7 18  1  0  0  0  0
  8  9  2  0  0  0  0
  8 17  1  0  0  0  0
  9 10  1  0  0  0  0
 10 11  2  0  0  0  0
 11 12  1  0  0  0  0
 12 13  2  0  0  0  0
 12 17  1  0  0  0  0
 13 14  1  0  0  0  0
 14 15  2  0  0  0  0
 15 16  1  0  0  0  0
 16 17  2  0  0  0  0
 18 19  1  0  0  0  0
 18 36  2  0  0  0  0
 19 20  2  0  0  0  0
 19 35  1  0  0  0  0
 20 21  1  0  0  0  0
 21 22  2  0  0  0  0
 22 23  1  0  0  0  0
 23 24  1  0  0  0  0
 23 35  2  0  0  0  0
 24 25  1  0  0  0  0
 25 26  1  0  0  0  0
 26 27  1  1  0  0  0
 26 34  1  0  0  0  0
 27 28  1  0  0  0  0
 28 29  1  0  0  0  0
 28 33  1  0  0  0  0
 29 30  1  0  0  0  0
 30 31  1  0  0  0  0
 31 32  1  0  0  0  0
 32 33  1  0  0  0  0
 34 35  1  0  0  0  0
 34 36  1  0  0  0  0
 36 37  1  0  0  0  0
M  END
>  <CdId>
1534

>  <Formula>
C28H30N2O6S

>  <ID>
T4458

>  <Name>
WIN 55,212-2 Mesylate

>  <Synonyms>
(R)-(+)-WIN 55212; WIN 55,212-2 Mesylate

>  <CAS>
131543-23-2

>  <MolWt>
522.61

>  <Pathways>
GPCR/G Protein

>  <Target>
Cannabinoid Receptor

>  <Receptor>
CB1R;CB2R

$$$$
