1-Methyl-L-histidine
 OpenBabel02212023462D

 12 12  0  0  1  0  0  0  0  0999 V2000
    0.5678    1.9393    0.0000 C   0  0  0  0  0  0  0  0  0  0  0  0
    0.5678    1.1143    0.0000 N   0  0  0  0  0  0  0  0  0  0  0  0
    1.2352    0.6294    0.0000 C   0  0  0  0  0  0  0  0  0  0  0  0
    0.9803   -0.1553    0.0000 N   0  0  0  0  0  0  0  0  0  0  0  0
    0.1553   -0.1553    0.0000 C   0  0  0  0  0  0  0  0  0  0  0  0
   -0.3297   -0.8227    0.0000 C   0  0  0  0  0  0  0  0  0  0  0  0
    0.0059   -1.5764    0.0000 C   0  0  2  0  0  0  0  0  0  0  0  0
    0.8264   -1.6626    0.0000 N   0  0  0  0  0  0  0  0  0  0  0  0
   -0.4790   -2.2438    0.0000 C   0  0  0  0  0  0  0  0  0  0  0  0
   -0.1435   -2.9975    0.0000 O   0  0  0  0  0  0  0  0  0  0  0  0
   -1.2995   -2.1576    0.0000 O   0  0  0  0  0  0  0  0  0  0  0  0
   -0.0997    0.6294    0.0000 C   0  0  0  0  0  0  0  0  0  0  0  0
  1  2  1  0  0  0  0
  2  3  1  0  0  0  0
  2 12  1  0  0  0  0
  3  4  2  0  0  0  0
  4  5  1  0  0  0  0
  5  6  1  0  0  0  0
  5 12  2  0  0  0  0
  6  7  1  0  0  0  0
  7  8  1  6  0  0  0
  7  9  1  0  0  0  0
  9 10  1  0  0  0  0
  9 11  2  0  0  0  0
M  END
>  <CdId>
1226

>  <Formula>
C7H11N3O2

>  <ID>
T4934

>  <Name>
1-Methyl-L-histidine

>  <Synonyms>
3-(1-Methylimidazol-4-yl)-L-alanine; N¦Ó-Methyl-L-histidine

>  <CAS>
332-80-9

>  <MolWt>
169.18

>  <Pathways>
Metabolic Enzyme/Protease

>  <Target>
Endogenous Metabolite

>  <Receptor>
Human Endogenous Metabolite

$$$$
