2'-Deoxyadenosine monohydrate
 OpenBabel02212023462D

 19 20  0  0  1  0  0  0  0  0999 V2000
    0.0000    0.0000    0.0000 O   0  0  0  0  0  0  0  0  0  0  0  0
    5.4454    2.7263    0.0000 N   0  0  0  0  0  0  0  0  0  0  0  0
    5.4454    1.9013    0.0000 C   0  0  0  0  0  0  0  0  0  0  0  0
    6.1598    1.4888    0.0000 N   0  0  0  0  0  0  0  0  0  0  0  0
    6.1598    0.6638    0.0000 C   0  0  0  0  0  0  0  0  0  0  0  0
    5.4454    0.2513    0.0000 N   0  0  0  0  0  0  0  0  0  0  0  0
    4.7309    0.6638    0.0000 C   0  0  0  0  0  0  0  0  0  0  0  0
    4.7309    1.4888    0.0000 C   0  0  0  0  0  0  0  0  0  0  0  0
    3.9463    1.7437    0.0000 N   0  0  0  0  0  0  0  0  0  0  0  0
    3.4614    1.0763    0.0000 C   0  0  0  0  0  0  0  0  0  0  0  0
    3.9463    0.4089    0.0000 N   0  0  0  0  0  0  0  0  0  0  0  0
    3.6913   -0.3758    0.0000 C   0  0  1  0  0  0  0  0  0  0  0  0
    4.1763   -1.0432    0.0000 C   0  0  0  0  0  0  0  0  0  0  0  0
    3.6913   -1.7106    0.0000 C   0  0  2  0  0  0  0  0  0  0  0  0
    3.9463   -2.4953    0.0000 O   0  0  0  0  0  0  0  0  0  0  0  0
    2.9067   -1.4557    0.0000 C   0  0  1  0  0  0  0  0  0  0  0  0
    2.2393   -1.9406    0.0000 C   0  0  0  0  0  0  0  0  0  0  0  0
    2.3255   -2.7611    0.0000 O   0  0  0  0  0  0  0  0  0  0  0  0
    2.9067   -0.6307    0.0000 O   0  0  0  0  0  0  0  0  0  0  0  0
  2  3  1  0  0  0  0
  3  4  2  0  0  0  0
  3  8  1  0  0  0  0
  4  5  1  0  0  0  0
  5  6  2  0  0  0  0
  6  7  1  0  0  0  0
  7  8  2  0  0  0  0
  7 11  1  0  0  0  0
  8  9  1  0  0  0  0
  9 10  2  0  0  0  0
 10 11  1  0  0  0  0
 12 11  1  1  0  0  0
 12 13  1  0  0  0  0
 12 19  1  0  0  0  0
 13 14  1  0  0  0  0
 14 15  1  6  0  0  0
 14 16  1  0  0  0  0
 16 17  1  1  0  0  0
 16 19  1  0  0  0  0
 17 18  1  0  0  0  0
M  END
>  <CdId>
1184

>  <Formula>
C10H15N5O4

>  <ID>
T2752

>  <Name>
2'-Deoxyadenosine monohydrate

>  <CAS>
16373-93-6

>  <Source>
Animal

>  <category>
Others

>  <MolWt>
269.26

>  <Pathways>
Others

>  <Target>
Others

>  <Receptor>
Others

$$$$
