2-Deoxy-D-ribose
 OpenBabel02212023462D

  9  8  0  0  1  0  0  0  0  0999 V2000
    1.7605    1.8414    0.0000 O   0  0  0  0  0  0  0  0  0  0  0  0
    2.4750    1.4289    0.0000 C   0  0  0  0  0  0  0  0  0  0  0  0
    3.1895    1.8414    0.0000 C   0  0  1  0  0  0  0  0  0  0  0  0
    3.1895    2.6664    0.0000 O   0  0  0  0  0  0  0  0  0  0  0  0
    3.9039    1.4289    0.0000 C   0  0  1  0  0  0  0  0  0  0  0  0
    3.9039    0.6039    0.0000 O   0  0  0  0  0  0  0  0  0  0  0  0
    4.6184    1.8414    0.0000 C   0  0  0  0  0  0  0  0  0  0  0  0
    5.3329    1.4289    0.0000 C   0  0  0  0  0  0  0  0  0  0  0  0
    6.0474    1.8414    0.0000 O   0  0  0  0  0  0  0  0  0  0  0  0
  1  2  1  0  0  0  0
  2  3  1  0  0  0  0
  3  4  1  1  0  0  0
  3  5  1  0  0  0  0
  5  6  1  6  0  0  0
  5  7  1  0  0  0  0
  7  8  1  0  0  0  0
  8  9  2  0  0  0  0
M  END
>  <CdId>
392

>  <Formula>
C5H10O4

>  <ID>
T4818

>  <Name>
2-Deoxy-D-ribose

>  <Synonyms>
2-Deoxy-D-arabinose;2-Deoxy-D-erythropentose;Thyminose

>  <CAS>
533-67-5

>  <Source>
Animal

>  <category>
Others

>  <MolWt>
134.13

>  <Pathways>
Others

>  <Target>
Others

>  <Receptor>
Others

$$$$
