ABC294640
 OpenBabel02212023462D

 27 31  0  0  0  0  0  0  0  0999 V2000
    0.1179   -2.0304    0.0000 C   0  0  0  0  0  0  0  0  0  0  0  0
    0.8518   -1.6607    0.0000 C   0  0  3  0  0  0  0  0  0  0  0  0
    1.5857   -2.0304    0.0000 C   0  0  0  0  0  0  0  0  0  0  0  0
    2.0357   -1.2429    0.0000 C   0  0  3  0  0  0  0  0  0  0  0  0
    1.3018   -1.6179    0.0000 C   0  0  0  0  0  0  0  0  0  0  0  0
    0.5679   -1.2429    0.0000 C   0  0  3  0  0  0  0  0  0  0  0  0
    0.5679   -0.4929    0.0000 C   0  0  0  0  0  0  0  0  0  0  0  0
    1.3018   -0.1232    0.0000 C   0  0  3  0  0  0  0  0  0  0  0  0
    0.8518   -0.9107    0.0000 C   0  0  0  0  0  0  0  0  0  0  0  0
    2.0357   -0.4929    0.0000 C   0  0  0  0  0  0  0  0  0  0  0  0
    2.8331   -1.4546    0.0000 C   0  0  0  0  0  0  0  0  0  0  0  0
    3.4151   -0.8699    0.0000 O   0  0  0  0  0  0  0  0  0  0  0  0
    3.0484   -2.2510    0.0000 N   0  0  0  0  0  0  0  0  0  0  0  0
    3.8457   -2.4628    0.0000 C   0  0  0  0  0  0  0  0  0  0  0  0
    4.0610   -3.2592    0.0000 C   0  0  0  0  0  0  0  0  0  0  0  0
    4.8584   -3.4709    0.0000 C   0  0  0  0  0  0  0  0  0  0  0  0
    5.0737   -4.2673    0.0000 C   0  0  0  0  0  0  0  0  0  0  0  0
    4.4916   -4.8520    0.0000 N   0  0  0  0  0  0  0  0  0  0  0  0
    3.6943   -4.6403    0.0000 C   0  0  0  0  0  0  0  0  0  0  0  0
    3.4790   -3.8438    0.0000 C   0  0  0  0  0  0  0  0  0  0  0  0
    0.8518   -2.4857    0.0000 C   0  0  0  0  0  0  0  0  0  0  0  0
    1.5663   -2.8982    0.0000 C   0  0  0  0  0  0  0  0  0  0  0  0
    1.5663   -3.7232    0.0000 C   0  0  0  0  0  0  0  0  0  0  0  0
    0.8518   -4.1357    0.0000 C   0  0  0  0  0  0  0  0  0  0  0  0
    0.1373   -3.7232    0.0000 C   0  0  0  0  0  0  0  0  0  0  0  0
    0.1373   -2.8982    0.0000 C   0  0  0  0  0  0  0  0  0  0  0  0
    0.8518   -4.9607    0.0000 Cl  0  0  0  0  0  0  0  0  0  0  0  0
  1  2  1  0  0  0  0
  1  6  1  0  0  0  0
  2  3  1  0  0  0  0
  2  9  1  0  0  0  0
  2 21  1  0  0  0  0
  3  4  1  0  0  0  0
  4  5  1  0  0  0  0
  4 10  1  0  0  0  0
  4 11  1  0  0  0  0
  5  6  1  0  0  0  0
  6  7  1  0  0  0  0
  7  8  1  0  0  0  0
  8  9  1  0  0  0  0
  8 10  1  0  0  0  0
 11 12  2  0  0  0  0
 11 13  1  0  0  0  0
 13 14  1  0  0  0  0
 14 15  1  0  0  0  0
 15 16  2  0  0  0  0
 15 20  1  0  0  0  0
 16 17  1  0  0  0  0
 17 18  2  0  0  0  0
 18 19  1  0  0  0  0
 19 20  2  0  0  0  0
 21 22  2  0  0  0  0
 21 26  1  0  0  0  0
 22 23  1  0  0  0  0
 23 24  2  0  0  0  0
 24 25  1  0  0  0  0
 24 27  1  0  0  0  0
 25 26  2  0  0  0  0
M  END
>  <CdId>
347

>  <Formula>
C23H25ClN2O

>  <ID>
T6750

>  <Name>
ABC294640

>  <Synonyms>
Opaganib

>  <CAS>
915385-81-8

>  <MolWt>
380.91

>  <Pathways>
GPCR/G Protein

>  <Target>
S1P Receptor inhibitor

>  <Receptor>
SphK2

$$$$
