Abrine
 OpenBabel02212023462D

 16 17  0  0  1  0  0  0  0  0999 V2000
    0.8838   -2.1500    0.0000 C   0  0  0  0  0  0  0  0  0  0  0  0
    1.1387   -1.3654    0.0000 N   0  0  0  0  0  0  0  0  0  0  0  0
    0.6538   -0.6979    0.0000 C   0  0  0  0  0  0  0  0  0  0  0  0
    1.1387   -0.0305    0.0000 C   0  0  0  0  0  0  0  0  0  0  0  0
    0.8838    0.7541    0.0000 C   0  0  0  0  0  0  0  0  0  0  0  0
    0.0768    0.9256    0.0000 C   0  0  2  0  0  0  0  0  0  0  0  0
   -0.4752    0.3126    0.0000 N   0  0  0  0  0  0  0  0  0  0  0  0
   -0.1781    1.7103    0.0000 C   0  0  0  0  0  0  0  0  0  0  0  0
   -0.9851    1.8818    0.0000 O   0  0  0  0  0  0  0  0  0  0  0  0
    0.3739    2.3234    0.0000 O   0  0  0  0  0  0  0  0  0  0  0  0
    1.9233   -0.2854    0.0000 C   0  0  0  0  0  0  0  0  0  0  0  0
    2.6378    0.1271    0.0000 C   0  0  0  0  0  0  0  0  0  0  0  0
    3.3523   -0.2854    0.0000 C   0  0  0  0  0  0  0  0  0  0  0  0
    3.3523   -1.1104    0.0000 C   0  0  0  0  0  0  0  0  0  0  0  0
    2.6378   -1.5229    0.0000 C   0  0  0  0  0  0  0  0  0  0  0  0
    1.9233   -1.1104    0.0000 C   0  0  0  0  0  0  0  0  0  0  0  0
  1  2  1  0  0  0  0
  2  3  1  0  0  0  0
  2 16  1  0  0  0  0
  3  4  2  0  0  0  0
  4  5  1  0  0  0  0
  4 11  1  0  0  0  0
  5  6  1  0  0  0  0
  6  7  1  6  0  0  0
  6  8  1  0  0  0  0
  8  9  1  0  0  0  0
  8 10  2  0  0  0  0
 11 12  2  0  0  0  0
 11 16  1  0  0  0  0
 12 13  1  0  0  0  0
 13 14  2  0  0  0  0
 14 15  1  0  0  0  0
 15 16  2  0  0  0  0
M  END
>  <CdId>
526

>  <Formula>
C12H14N2O2

>  <ID>
T3S1967

>  <Name>
Abrine

>  <Synonyms>
L-Abrine;N-ME-Tryptophan

>  <CAS>
21339-55-9

>  <Source>
Abrus precatorius

>  <category>
Alkaloids

>  <MolWt>
218.25

>  <Pathways>
Others

>  <Target>
Others

>  <Receptor>
Others

$$$$
