Aloxistatin
 OpenBabel02212023462D

 24 24  0  0  1  0  0  0  0  0999 V2000
    1.7309    8.1099    0.0000 C   0  0  0  0  0  0  0  0  0  0  0  0
    1.0164    8.5224    0.0000 C   0  0  0  0  0  0  0  0  0  0  0  0
    0.3020    8.1099    0.0000 O   0  0  0  0  0  0  0  0  0  0  0  0
    0.3020    7.2849    0.0000 C   0  0  0  0  0  0  0  0  0  0  0  0
   -0.4125    6.8724    0.0000 O   0  0  0  0  0  0  0  0  0  0  0  0
    1.0164    6.8724    0.0000 C   0  0  1  0  0  0  0  0  0  0  0  0
    1.8414    6.8724    0.0000 O   0  0  0  0  0  0  0  0  0  0  0  0
    1.4289    6.1579    0.0000 C   0  0  2  0  0  0  0  0  0  0  0  0
    1.4289    5.3329    0.0000 C   0  0  0  0  0  0  0  0  0  0  0  0
    2.1434    4.9204    0.0000 O   0  0  0  0  0  0  0  0  0  0  0  0
    0.7145    4.9204    0.0000 N   0  0  0  0  0  0  0  0  0  0  0  0
    0.7145    4.0954    0.0000 C   0  0  1  0  0  0  0  0  0  0  0  0
   -0.0000    3.6829    0.0000 C   0  0  0  0  0  0  0  0  0  0  0  0
   -0.0000    2.8579    0.0000 C   0  0  0  0  0  0  0  0  0  0  0  0
    0.7145    2.4454    0.0000 C   0  0  0  0  0  0  0  0  0  0  0  0
   -0.7145    2.4454    0.0000 C   0  0  0  0  0  0  0  0  0  0  0  0
    1.4289    3.6829    0.0000 C   0  0  0  0  0  0  0  0  0  0  0  0
    1.4289    2.8579    0.0000 O   0  0  0  0  0  0  0  0  0  0  0  0
    2.1434    4.0954    0.0000 N   0  0  0  0  0  0  0  0  0  0  0  0
    2.8579    3.6829    0.0000 C   0  0  0  0  0  0  0  0  0  0  0  0
    3.5724    4.0954    0.0000 C   0  0  0  0  0  0  0  0  0  0  0  0
    4.2868    3.6829    0.0000 C   0  0  0  0  0  0  0  0  0  0  0  0
    5.0013    4.0954    0.0000 C   0  0  0  0  0  0  0  0  0  0  0  0
    4.2868    2.8579    0.0000 C   0  0  0  0  0  0  0  0  0  0  0  0
  1  2  1  0  0  0  0
  2  3  1  0  0  0  0
  3  4  1  0  0  0  0
  4  5  2  0  0  0  0
  6  4  1  1  0  0  0
  6  7  1  0  0  0  0
  6  8  1  0  0  0  0
  7  8  1  0  0  0  0
  8  9  1  6  0  0  0
  9 10  2  0  0  0  0
  9 11  1  0  0  0  0
 12 11  1  0  0  0  0
 12 13  1  6  0  0  0
 12 17  1  0  0  0  0
 13 14  1  0  0  0  0
 14 15  1  0  0  0  0
 14 16  1  0  0  0  0
 17 18  2  0  0  0  0
 17 19  1  0  0  0  0
 19 20  1  0  0  0  0
 20 21  1  0  0  0  0
 21 22  1  0  0  0  0
 22 23  1  0  0  0  0
 22 24  1  0  0  0  0
M  END
>  <CdId>
809

>  <Formula>
C17H30N2O5

>  <ID>
T6040

>  <Name>
Aloxistatin

>  <Synonyms>
E64c ethyl ester; E64d; Loxistatin

>  <CAS>
88321-09-9

>  <MolWt>
342.43

>  <Pathways>
Proteases/Proteasome

>  <Target>
Cysteine Protease inhibitor

>  <Receptor>
Cysteine protease

$$$$
