AZD-26
 OpenBabel02212023462D

 26 29  0  0  0  0  0  0  0  0999 V2000
    0.4486    5.3128    0.0000 N   0  0  0  0  0  0  0  0  0  0  0  0
    0.6622    4.5159    0.0000 C   0  0  0  0  0  0  0  0  0  0  0  0
    1.4591    4.3024    0.0000 O   0  0  0  0  0  0  0  0  0  0  0  0
    0.0788    3.9326    0.0000 C   0  0  0  0  0  0  0  0  0  0  0  0
    0.2923    3.1357    0.0000 C   0  0  0  0  0  0  0  0  0  0  0  0
   -0.2910    2.5523    0.0000 N   0  0  0  0  0  0  0  0  0  0  0  0
   -1.0879    2.7658    0.0000 C   0  0  0  0  0  0  0  0  0  0  0  0
   -1.6713    2.1825    0.0000 C   0  0  0  0  0  0  0  0  0  0  0  0
   -1.4578    1.3856    0.0000 C   0  0  0  0  0  0  0  0  0  0  0  0
   -2.0411    0.8022    0.0000 C   0  0  0  0  0  0  0  0  0  0  0  0
   -2.8380    1.0157    0.0000 C   0  0  0  0  0  0  0  0  0  0  0  0
   -3.0515    1.8126    0.0000 C   0  0  0  0  0  0  0  0  0  0  0  0
   -2.4682    2.3960    0.0000 C   0  0  0  0  0  0  0  0  0  0  0  0
   -3.4214    0.4324    0.0000 C   0  0  0  0  0  0  0  0  0  0  0  0
   -4.0047    1.0157    0.0000 N   0  0  0  0  0  0  0  0  0  0  0  0
   -2.8380   -0.1510    0.0000 C   0  0  0  0  0  0  0  0  0  0  0  0
   -3.4214   -0.7343    0.0000 C   0  0  0  0  0  0  0  0  0  0  0  0
   -4.0047   -0.1510    0.0000 C   0  0  0  0  0  0  0  0  0  0  0  0
   -1.3014    3.5627    0.0000 C   0  0  0  0  0  0  0  0  0  0  0  0
   -0.7181    4.1461    0.0000 C   0  0  0  0  0  0  0  0  0  0  0  0
   -2.0983    3.7762    0.0000 C   0  0  0  0  0  0  0  0  0  0  0  0
   -2.6817    3.1929    0.0000 C   0  0  0  0  0  0  0  0  0  0  0  0
   -3.4786    3.4064    0.0000 C   0  0  0  0  0  0  0  0  0  0  0  0
   -3.6921    4.2033    0.0000 C   0  0  0  0  0  0  0  0  0  0  0  0
   -3.1087    4.7867    0.0000 C   0  0  0  0  0  0  0  0  0  0  0  0
   -2.3119    4.5731    0.0000 C   0  0  0  0  0  0  0  0  0  0  0  0
  1  2  1  0  0  0  0
  2  3  2  0  0  0  0
  2  4  1  0  0  0  0
  4  5  2  0  0  0  0
  4 20  1  0  0  0  0
  5  6  1  0  0  0  0
  6  7  2  0  0  0  0
  7  8  1  0  0  0  0
  7 19  1  0  0  0  0
  8  9  2  0  0  0  0
  8 13  1  0  0  0  0
  9 10  1  0  0  0  0
 10 11  2  0  0  0  0
 11 12  1  0  0  0  0
 11 14  1  0  0  0  0
 12 13  2  0  0  0  0
 14 15  1  0  0  0  0
 14 16  1  0  0  0  0
 14 18  1  0  0  0  0
 16 17  1  0  0  0  0
 17 18  1  0  0  0  0
 19 20  2  0  0  0  0
 19 21  1  0  0  0  0
 21 22  2  0  0  0  0
 21 26  1  0  0  0  0
 22 23  1  0  0  0  0
 23 24  2  0  0  0  0
 24 25  1  0  0  0  0
 25 26  2  0  0  0  0
M  END
>  <CdId>
1512

>  <Formula>
C22H21N3O

>  <ID>
T4489

>  <Name>
AZD-26

>  <Synonyms>
AZD 26; AZD-26; AKT-IN-1

>  <CAS>
1357158-81-6

>  <MolWt>
343.42

>  <Pathways>
PI3K/Akt/mTOR signaling

>  <Target>
Akt inhibitor

>  <Receptor>
allosteric Akt

$$$$
