BQ-123
 OpenBabel02212023462D

 45 48  0  0  1  0  0  0  0  0999 V2000
   -3.7163    0.5038    0.0000 H   0  0  0  0  0  0  0  0  0  0  0  0
   -3.3972    1.2646    0.0000 C   0  0  2  0  0  0  0  0  0  0  0  0
   -4.2220    1.2467    0.0000 C   0  0  0  0  0  0  0  0  0  0  0  0
   -4.4939    2.0256    0.0000 C   0  0  0  0  0  0  0  0  0  0  0  0
   -3.8372    2.5249    0.0000 C   0  0  0  0  0  0  0  0  0  0  0  0
   -3.1593    2.0546    0.0000 N   0  0  0  0  0  0  0  0  0  0  0  0
   -2.2904    2.2993    0.0000 C   0  0  0  0  0  0  0  0  0  0  0  0
   -1.8114    1.6276    0.0000 O   0  0  0  0  0  0  0  0  0  0  0  0
   -1.8201    2.9772    0.0000 C   0  0  1  0  0  0  0  0  0  0  0  0
   -2.0920    3.7561    0.0000 C   0  0  0  0  0  0  0  0  0  0  0  0
   -1.5534    4.3810    0.0000 C   0  0  0  0  0  0  0  0  0  0  0  0
   -0.7429    4.2270    0.0000 O   0  0  0  0  0  0  0  0  0  0  0  0
   -1.8253    5.1599    0.0000 O   0  0  0  0  0  0  0  0  0  0  0  0
   -1.0301    2.7393    0.0000 N   0  0  0  0  0  0  0  0  0  0  0  0
   -1.0122    1.9145    0.0000 C   0  0  0  0  0  0  0  0  0  0  0  0
   -1.6533    1.3953    0.0000 O   0  0  0  0  0  0  0  0  0  0  0  0
   -0.4228    1.2306    0.0000 C   0  0  1  0  0  0  0  0  0  0  0  0
    0.3842    1.4022    0.0000 C   0  0  0  0  0  0  0  0  0  0  0  0
    0.6391    2.1868    0.0000 C   0  0  0  0  0  0  0  0  0  0  0  0
    0.1542    2.8542    0.0000 C   0  0  0  0  0  0  0  0  0  0  0  0
    0.6391    3.5217    0.0000 N   0  0  0  0  0  0  0  0  0  0  0  0
    1.4237    3.2667    0.0000 C   0  0  0  0  0  0  0  0  0  0  0  0
    1.4237    2.4417    0.0000 C   0  0  0  0  0  0  0  0  0  0  0  0
    2.1382    2.0292    0.0000 C   0  0  0  0  0  0  0  0  0  0  0  0
    2.8527    2.4417    0.0000 C   0  0  0  0  0  0  0  0  0  0  0  0
    2.8527    3.2667    0.0000 C   0  0  0  0  0  0  0  0  0  0  0  0
    2.1382    3.6792    0.0000 C   0  0  0  0  0  0  0  0  0  0  0  0
   -0.6606    0.4407    0.0000 N   0  0  0  0  0  0  0  0  0  0  0  0
   -0.0954   -0.1603    0.0000 C   0  0  0  0  0  0  0  0  0  0  0  0
    0.7076    0.0287    0.0000 O   0  0  0  0  0  0  0  0  0  0  0  0
   -0.3333   -0.9503    0.0000 C   0  0  2  0  0  0  0  0  0  0  0  0
    0.2319   -1.5512    0.0000 C   0  0  0  0  0  0  0  0  0  0  0  0
   -0.0059   -2.3412    0.0000 C   0  0  0  0  0  0  0  0  0  0  0  0
    0.5593   -2.9422    0.0000 C   0  0  0  0  0  0  0  0  0  0  0  0
   -0.8090   -2.5302    0.0000 C   0  0  0  0  0  0  0  0  0  0  0  0
   -1.1363   -1.1393    0.0000 N   0  0  0  0  0  0  0  0  0  0  0  0
   -1.7015   -0.5383    0.0000 C   0  0  0  0  0  0  0  0  0  0  0  0
   -1.4637    0.2517    0.0000 O   0  0  0  0  0  0  0  0  0  0  0  0
   -2.5046   -0.7273    0.0000 C   0  0  2  0  0  0  0  0  0  0  0  0
   -3.0698   -0.1264    0.0000 N   0  0  0  0  0  0  0  0  0  0  0  0
   -2.8320    0.6636    0.0000 C   0  0  0  0  0  0  0  0  0  0  0  0
   -2.0289    0.8526    0.0000 O   0  0  0  0  0  0  0  0  0  0  0  0
   -2.7424   -1.5173    0.0000 C   0  0  0  0  0  0  0  0  0  0  0  0
   -3.5455   -1.7063    0.0000 C   0  0  0  0  0  0  0  0  0  0  0  0
   -2.1772   -2.1183    0.0000 C   0  0  0  0  0  0  0  0  0  0  0  0
  2  1  1  1  0  0  0
  2  3  1  0  0  0  0
  2  6  1  0  0  0  0
  2 41  1  0  0  0  0
  3  4  1  0  0  0  0
  4  5  1  0  0  0  0
  5  6  1  0  0  0  0
  6  7  1  0  0  0  0
  7  8  2  0  0  0  0
  7  9  1  0  0  0  0
  9 10  1  1  0  0  0
  9 14  1  0  0  0  0
 10 11  1  0  0  0  0
 11 12  1  0  0  0  0
 11 13  2  0  0  0  0
 14 15  1  0  0  0  0
 15 16  2  0  0  0  0
 15 17  1  0  0  0  0
 17 18  1  1  0  0  0
 17 28  1  0  0  0  0
 18 19  1  0  0  0  0
 19 20  2  0  0  0  0
 19 23  1  0  0  0  0
 20 21  1  0  0  0  0
 21 22  1  0  0  0  0
 22 23  2  0  0  0  0
 22 27  1  0  0  0  0
 23 24  1  0  0  0  0
 24 25  2  0  0  0  0
 25 26  1  0  0  0  0
 26 27  2  0  0  0  0
 28 29  1  0  0  0  0
 29 30  2  0  0  0  0
 29 31  1  0  0  0  0
 31 32  1  6  0  0  0
 31 36  1  0  0  0  0
 32 33  1  0  0  0  0
 33 34  1  0  0  0  0
 33 35  1  0  0  0  0
 36 37  1  0  0  0  0
 37 38  2  0  0  0  0
 37 39  1  0  0  0  0
 39 40  1  0  0  0  0
 39 43  1  1  0  0  0
 40 41  1  0  0  0  0
 41 42  2  0  0  0  0
 43 44  1  0  0  0  0
 43 45  1  0  0  0  0
M  END
>  <CdId>
325

>  <Formula>
C31H42N6O7

>  <ID>
T6792

>  <Name>
BQ-123

>  <Synonyms>
BQ 123; BQ-123

>  <CAS>
136553-81-6

>  <MolWt>
610.7

>  <Pathways>
GPCR/G Protein

>  <Target>
Endothelin Receptor antagonist

>  <Receptor>
Endothelin A receptor

$$$$
