Carfilzomib
 OpenBabel02212023462D

 52 55  0  0  1  0  0  0  0  0999 V2000
    1.9489   -6.6125    0.0000 O   0  0  0  0  0  0  0  0  0  0  0  0
    2.0921   -7.4250    0.0000 C   0  0  1  0  0  0  0  0  0  0  0  0
    2.9171   -7.4250    0.0000 C   0  0  0  0  0  0  0  0  0  0  0  0
    3.3296   -6.7105    0.0000 O   0  0  0  0  0  0  0  0  0  0  0  0
    3.3296   -8.1395    0.0000 C   0  0  1  0  0  0  0  0  0  0  0  0
    2.9171   -8.8539    0.0000 N   0  0  0  0  0  0  0  0  0  0  0  0
    3.3296   -9.5684    0.0000 C   0  0  0  0  0  0  0  0  0  0  0  0
    4.1546   -9.5684    0.0000 O   0  0  0  0  0  0  0  0  0  0  0  0
    2.9171  -10.2829    0.0000 C   0  0  1  0  0  0  0  0  0  0  0  0
    2.0921  -10.2829    0.0000 N   0  0  0  0  0  0  0  0  0  0  0  0
    1.6796   -9.5684    0.0000 C   0  0  0  0  0  0  0  0  0  0  0  0
    2.0921   -8.8539    0.0000 O   0  0  0  0  0  0  0  0  0  0  0  0
    0.8546   -9.5684    0.0000 C   0  0  1  0  0  0  0  0  0  0  0  0
    0.4421   -8.8539    0.0000 N   0  0  0  0  0  0  0  0  0  0  0  0
   -0.3829   -8.8539    0.0000 C   0  0  0  0  0  0  0  0  0  0  0  0
   -0.7954   -9.5684    0.0000 O   0  0  0  0  0  0  0  0  0  0  0  0
   -0.7954   -8.1395    0.0000 C   0  0  1  0  0  0  0  0  0  0  0  0
   -1.6204   -8.1395    0.0000 N   0  0  0  0  0  0  0  0  0  0  0  0
   -2.0329   -7.4250    0.0000 C   0  0  0  0  0  0  0  0  0  0  0  0
   -1.6204   -6.7105    0.0000 O   0  0  0  0  0  0  0  0  0  0  0  0
   -2.8579   -7.4250    0.0000 C   0  0  0  0  0  0  0  0  0  0  0  0
   -3.2704   -8.1395    0.0000 N   0  0  0  0  0  0  0  0  0  0  0  0
   -2.8579   -8.8539    0.0000 C   0  0  0  0  0  0  0  0  0  0  0  0
   -3.2704   -9.5684    0.0000 C   0  0  0  0  0  0  0  0  0  0  0  0
   -4.0954   -9.5684    0.0000 O   0  0  0  0  0  0  0  0  0  0  0  0
   -4.5079   -8.8539    0.0000 C   0  0  0  0  0  0  0  0  0  0  0  0
   -4.0954   -8.1395    0.0000 C   0  0  0  0  0  0  0  0  0  0  0  0
   -0.3829   -7.4250    0.0000 C   0  0  0  0  0  0  0  0  0  0  0  0
   -0.7954   -6.7105    0.0000 C   0  0  0  0  0  0  0  0  0  0  0  0
   -0.3829   -5.9961    0.0000 C   0  0  0  0  0  0  0  0  0  0  0  0
   -0.7954   -5.2816    0.0000 C   0  0  0  0  0  0  0  0  0  0  0  0
   -0.3829   -4.5671    0.0000 C   0  0  0  0  0  0  0  0  0  0  0  0
    0.4421   -4.5671    0.0000 C   0  0  0  0  0  0  0  0  0  0  0  0
    0.8546   -5.2816    0.0000 C   0  0  0  0  0  0  0  0  0  0  0  0
    0.4421   -5.9961    0.0000 C   0  0  0  0  0  0  0  0  0  0  0  0
    0.4421  -10.2829    0.0000 C   0  0  0  0  0  0  0  0  0  0  0  0
    0.8546  -10.9974    0.0000 C   0  0  0  0  0  0  0  0  0  0  0  0
    1.6796  -10.9974    0.0000 C   0  0  0  0  0  0  0  0  0  0  0  0
    0.4421  -11.7118    0.0000 C   0  0  0  0  0  0  0  0  0  0  0  0
    3.3296  -10.9974    0.0000 C   0  0  0  0  0  0  0  0  0  0  0  0
    4.1546  -10.9974    0.0000 C   0  0  0  0  0  0  0  0  0  0  0  0
    4.5671  -10.2829    0.0000 C   0  0  0  0  0  0  0  0  0  0  0  0
    5.3921  -10.2829    0.0000 C   0  0  0  0  0  0  0  0  0  0  0  0
    5.8046  -10.9974    0.0000 C   0  0  0  0  0  0  0  0  0  0  0  0
    5.3921  -11.7118    0.0000 C   0  0  0  0  0  0  0  0  0  0  0  0
    4.5671  -11.7118    0.0000 C   0  0  0  0  0  0  0  0  0  0  0  0
    4.1546   -8.1395    0.0000 C   0  0  0  0  0  0  0  0  0  0  0  0
    4.5671   -7.4250    0.0000 C   0  0  0  0  0  0  0  0  0  0  0  0
    4.1546   -6.7105    0.0000 C   0  0  0  0  0  0  0  0  0  0  0  0
    5.3921   -7.4250    0.0000 C   0  0  0  0  0  0  0  0  0  0  0  0
    1.3169   -7.1428    0.0000 C   0  0  0  0  0  0  0  0  0  0  0  0
    1.9489   -8.2375    0.0000 C   0  0  0  0  0  0  0  0  0  0  0  0
  1  2  1  0  0  0  0
  1 51  1  0  0  0  0
  2  3  1  0  0  0  0
  2 51  1  0  0  0  0
  2 52  1  6  0  0  0
  3  4  2  0  0  0  0
  3  5  1  0  0  0  0
  5  6  1  0  0  0  0
  5 47  1  6  0  0  0
  6  7  1  0  0  0  0
  7  8  2  0  0  0  0
  7  9  1  0  0  0  0
  9 10  1  0  0  0  0
  9 40  1  6  0  0  0
 10 11  1  0  0  0  0
 11 12  2  0  0  0  0
 11 13  1  0  0  0  0
 13 14  1  0  0  0  0
 13 36  1  6  0  0  0
 14 15  1  0  0  0  0
 15 16  2  0  0  0  0
 15 17  1  0  0  0  0
 17 18  1  0  0  0  0
 17 28  1  1  0  0  0
 18 19  1  0  0  0  0
 19 20  2  0  0  0  0
 19 21  1  0  0  0  0
 21 22  1  0  0  0  0
 22 23  1  0  0  0  0
 22 27  1  0  0  0  0
 23 24  1  0  0  0  0
 24 25  1  0  0  0  0
 25 26  1  0  0  0  0
 26 27  1  0  0  0  0
 28 29  1  0  0  0  0
 29 30  1  0  0  0  0
 30 31  2  0  0  0  0
 30 35  1  0  0  0  0
 31 32  1  0  0  0  0
 32 33  2  0  0  0  0
 33 34  1  0  0  0  0
 34 35  2  0  0  0  0
 36 37  1  0  0  0  0
 37 38  1  0  0  0  0
 37 39  1  0  0  0  0
 40 41  1  0  0  0  0
 41 42  2  0  0  0  0
 41 46  1  0  0  0  0
 42 43  1  0  0  0  0
 43 44  2  0  0  0  0
 44 45  1  0  0  0  0
 45 46  2  0  0  0  0
 47 48  1  0  0  0  0
 48 49  1  0  0  0  0
 48 50  1  0  0  0  0
M  END
>  <CdId>
995

>  <Mol Weight>
719.9099

>  <Formula>
C40H57N5O7

>  <ID>
T1795

>  <Name>
Carfilzomib

>  <Synonyms>
PR-171

>  <CAS>
868540-17-4

>  <Approved status>
FDA

>  <Disease>
Cancer

>  <Indication>
Multiple Myeloma

>  <Pathways>
Proteases/Proteasome; Ubiquitination

>  <Target>
Proteasome inhibitor

>  <Receptor>
Proteasome

$$$$
