Cefpirome sulfate
 OpenBabel02212023462D

 40 43  0  0  1  0  0  0  0  0999 V2000
    0.0000   -0.8250    0.0000 O   0  0  0  0  0  0  0  0  0  0  0  0
    0.0000    0.0000    0.0000 S   0  0  0  0  0  0  0  0  0  0  0  0
    0.0000    0.8250    0.0000 O   0  5  0  0  0  0  0  0  0  0  0  0
    0.8250   -0.0000    0.0000 O   0  0  0  0  0  0  0  0  0  0  0  0
   -0.8250    0.0000    0.0000 O   0  0  0  0  0  0  0  0  0  0  0  0
    3.0643   -0.2064    0.0000 C   0  0  0  0  0  0  0  0  0  0  0  0
    3.8612   -0.4200    0.0000 O   0  0  0  0  0  0  0  0  0  0  0  0
    4.0747   -1.2168    0.0000 N   0  0  0  0  0  0  0  0  0  0  0  0
    4.8716   -1.4304    0.0000 C   0  0  0  0  0  0  0  0  0  0  0  0
    5.4550   -0.8470    0.0000 C   0  0  0  0  0  0  0  0  0  0  0  0
    6.2518   -1.0605    0.0000 O   0  0  0  0  0  0  0  0  0  0  0  0
    5.2414   -0.0501    0.0000 N   0  0  0  0  0  0  0  0  0  0  0  0
    5.8248    0.5332    0.0000 C   0  0  1  0  0  0  0  0  0  0  0  0
    6.6498    0.5332    0.0000 C   0  0  1  0  0  0  0  0  0  0  0  0
    7.3643    0.1207    0.0000 S   0  0  0  0  0  0  0  0  0  0  0  0
    8.0787    0.5332    0.0000 C   0  0  0  0  0  0  0  0  0  0  0  0
    8.0787    1.3582    0.0000 C   0  0  0  0  0  0  0  0  0  0  0  0
    8.7932    1.7707    0.0000 C   0  0  0  0  0  0  0  0  0  0  0  0
    9.5077    1.3582    0.0000 N   0  3  0  0  0  0  0  0  0  0  0  0
   10.2221    1.7707    0.0000 C   0  0  0  0  0  0  0  0  0  0  0  0
   10.9366    1.3582    0.0000 C   0  0  0  0  0  0  0  0  0  0  0  0
   10.9366    0.5332    0.0000 C   0  0  0  0  0  0  0  0  0  0  0  0
   10.2221    0.1207    0.0000 C   0  0  0  0  0  0  0  0  0  0  0  0
   10.0506   -0.6862    0.0000 C   0  0  0  0  0  0  0  0  0  0  0  0
    9.2301   -0.7725    0.0000 C   0  0  0  0  0  0  0  0  0  0  0  0
    8.8946   -0.0188    0.0000 C   0  0  0  0  0  0  0  0  0  0  0  0
    9.5077    0.5332    0.0000 C   0  0  0  0  0  0  0  0  0  0  0  0
    7.3643    1.7707    0.0000 C   0  0  0  0  0  0  0  0  0  0  0  0
    6.6498    1.3582    0.0000 N   0  0  0  0  0  0  0  0  0  0  0  0
    5.8248    1.3582    0.0000 C   0  0  0  0  0  0  0  0  0  0  0  0
    5.2414    1.9416    0.0000 O   0  0  0  0  0  0  0  0  0  0  0  0
    7.3643    2.5957    0.0000 C   0  0  0  0  0  0  0  0  0  0  0  0
    6.6498    3.0082    0.0000 O   0  0  0  0  0  0  0  0  0  0  0  0
    8.0787    3.0082    0.0000 O   0  0  0  0  0  0  0  0  0  0  0  0
    5.0851   -2.2273    0.0000 C   0  0  0  0  0  0  0  0  0  0  0  0
    5.8553   -2.5229    0.0000 C   0  0  0  0  0  0  0  0  0  0  0  0
    5.8121   -3.3468    0.0000 S   0  0  0  0  0  0  0  0  0  0  0  0
    5.0153   -3.5603    0.0000 C   0  0  0  0  0  0  0  0  0  0  0  0
    4.7196   -4.3305    0.0000 N   0  0  0  0  0  0  0  0  0  0  0  0
    4.5659   -2.8684    0.0000 N   0  0  0  0  0  0  0  0  0  0  0  0
  1  2  1  0  0  0  0
  2  3  1  0  0  0  0
  2  4  2  0  0  0  0
  2  5  2  0  0  0  0
  6  7  1  0  0  0  0
  7  8  1  0  0  0  0
  8  9  2  0  0  0  0
  9 10  1  0  0  0  0
  9 35  1  0  0  0  0
 10 11  2  0  0  0  0
 10 12  1  0  0  0  0
 13 12  1  6  0  0  0
 13 14  1  0  0  0  0
 13 30  1  0  0  0  0
 14 15  1  6  0  0  0
 14 29  1  0  0  0  0
 15 16  1  0  0  0  0
 16 17  1  0  0  0  0
 17 18  1  0  0  0  0
 17 28  2  0  0  0  0
 18 19  1  0  0  0  0
 19 20  2  0  0  0  0
 19 27  1  0  0  0  0
 20 21  1  0  0  0  0
 21 22  2  0  0  0  0
 22 23  1  0  0  0  0
 23 24  1  0  0  0  0
 23 27  2  0  0  0  0
 24 25  1  0  0  0  0
 25 26  1  0  0  0  0
 26 27  1  0  0  0  0
 28 29  1  0  0  0  0
 28 32  1  0  0  0  0
 29 30  1  0  0  0  0
 30 31  2  0  0  0  0
 32 33  1  0  0  0  0
 32 34  2  0  0  0  0
 35 36  2  0  0  0  0
 35 40  1  0  0  0  0
 36 37  1  0  0  0  0
 37 38  1  0  0  0  0
 38 39  1  0  0  0  0
 38 40  2  0  0  0  0
M  CHG  2   3  -1  19   1
M  END
>  <CdId>
1185

>  <Formula>
C22H24N6O9S3

>  <ID>
T4995

>  <Name>
Cefpirome sulfate

>  <Synonyms>
HR-810 sulfate

>  <CAS>
98753-19-6

>  <MolWt>
612.66

>  <Pathways>
Microbiology&virology

>  <Target>
Antibacterial

>  <Receptor>
Bacterial

$$$$
