Cephradine
 OpenBabel02212023462D

 24 26  0  0  1  0  0  0  0  0999 V2000
    2.7069    0.5635    0.0000 C   0  0  0  0  0  0  0  0  0  0  0  0
    1.9924    0.9760    0.0000 C   0  0  0  0  0  0  0  0  0  0  0  0
    1.2780    0.5635    0.0000 C   0  0  0  0  0  0  0  0  0  0  0  0
    0.5635    0.9760    0.0000 N   0  0  0  0  0  0  0  0  0  0  0  0
    0.5635    1.8010    0.0000 C   0  0  2  0  0  0  0  0  0  0  0  0
    1.2780    2.2135    0.0000 S   0  0  0  0  0  0  0  0  0  0  0  0
    1.9924    1.8010    0.0000 C   0  0  0  0  0  0  0  0  0  0  0  0
   -0.2615    1.8010    0.0000 C   0  0  1  0  0  0  0  0  0  0  0  0
   -0.2615    0.9760    0.0000 C   0  0  0  0  0  0  0  0  0  0  0  0
   -0.8449    0.3926    0.0000 O   0  0  0  0  0  0  0  0  0  0  0  0
   -0.8449    2.3843    0.0000 N   0  0  0  0  0  0  0  0  0  0  0  0
   -0.6314    3.1812    0.0000 C   0  0  0  0  0  0  0  0  0  0  0  0
    0.1655    3.3948    0.0000 O   0  0  0  0  0  0  0  0  0  0  0  0
   -1.2147    3.7646    0.0000 C   0  0  1  0  0  0  0  0  0  0  0  0
   -1.0012    4.5615    0.0000 C   0  0  0  0  0  0  0  0  0  0  0  0
   -1.5846    5.1449    0.0000 C   0  0  0  0  0  0  0  0  0  0  0  0
   -1.3710    5.9417    0.0000 C   0  0  0  0  0  0  0  0  0  0  0  0
   -0.5741    6.1553    0.0000 C   0  0  0  0  0  0  0  0  0  0  0  0
    0.0092    5.5719    0.0000 C   0  0  0  0  0  0  0  0  0  0  0  0
   -0.2043    4.7750    0.0000 C   0  0  0  0  0  0  0  0  0  0  0  0
   -2.0116    3.5511    0.0000 N   0  0  0  0  0  0  0  0  0  0  0  0
    1.2780   -0.2615    0.0000 C   0  0  0  0  0  0  0  0  0  0  0  0
    0.5635   -0.6740    0.0000 O   0  0  0  0  0  0  0  0  0  0  0  0
    1.9924   -0.6740    0.0000 O   0  0  0  0  0  0  0  0  0  0  0  0
  1  2  1  0  0  0  0
  2  3  2  0  0  0  0
  2  7  1  0  0  0  0
  3  4  1  0  0  0  0
  3 22  1  0  0  0  0
  4  9  1  0  0  0  0
  5  4  1  0  0  0  0
  5  6  1  1  0  0  0
  5  8  1  0  0  0  0
  6  7  1  0  0  0  0
  8  9  1  0  0  0  0
  8 11  1  1  0  0  0
  9 10  2  0  0  0  0
 11 12  1  0  0  0  0
 12 13  2  0  0  0  0
 12 14  1  0  0  0  0
 14 15  1  0  0  0  0
 14 21  1  6  0  0  0
 15 16  2  0  0  0  0
 15 20  1  0  0  0  0
 16 17  1  0  0  0  0
 17 18  1  0  0  0  0
 18 19  2  0  0  0  0
 19 20  1  0  0  0  0
 22 23  2  0  0  0  0
 22 24  1  0  0  0  0
M  END
>  <CdId>
201

>  <Mol Weight>
349.405

>  <Formula>
C16H19N3O4S

>  <ID>
T0199

>  <Name>
Cephradine

>  <Synonyms>
Cephradine;Sefril;Anspor

>  <CAS>
38821-53-3

>  <Approved status>
FDA

>  <Disease>
Immune system

>  <Indication>
Antibiotics(Respiratory Tract Infections; Otitis Media; Skin And Skin Structure Infections; Urinary Tract Infections )

>  <Pathways>
Microbiology&Virology

>  <Target>
Antibacterial inhibitor

>  <Receptor>
PBPs

$$$$
