Chlorophos
 OpenBabel02212023462D

 12 11  0  0  0  0  0  0  0  0999 V2000
   -0.1914   -0.7145    0.0000 C   0  0  0  0  0  0  0  0  0  0  0  0
    0.5230   -0.3020    0.0000 O   0  0  0  0  0  0  0  0  0  0  0  0
    1.2375   -0.7145    0.0000 P   0  0  0  0  0  0  0  0  0  0  0  0
    0.8250   -1.4289    0.0000 O   0  0  0  0  0  0  0  0  0  0  0  0
    1.6500    0.0000    0.0000 O   0  0  0  0  0  0  0  0  0  0  0  0
    1.2375    0.7145    0.0000 C   0  0  0  0  0  0  0  0  0  0  0  0
    1.9520   -1.1270    0.0000 C   0  0  3  0  0  0  0  0  0  0  0  0
    1.9520   -1.9520    0.0000 O   0  0  0  0  0  0  0  0  0  0  0  0
    2.6664   -0.7145    0.0000 C   0  0  0  0  0  0  0  0  0  0  0  0
    3.3809   -0.3020    0.0000 Cl  0  0  0  0  0  0  0  0  0  0  0  0
    2.2539    0.0000    0.0000 Cl  0  0  0  0  0  0  0  0  0  0  0  0
    3.0789   -1.4289    0.0000 Cl  0  0  0  0  0  0  0  0  0  0  0  0
  1  2  1  0  0  0  0
  2  3  1  0  0  0  0
  3  4  2  0  0  0  0
  3  5  1  0  0  0  0
  3  7  1  0  0  0  0
  5  6  1  0  0  0  0
  7  8  1  0  0  0  0
  7  9  1  0  0  0  0
  9 10  1  0  0  0  0
  9 11  1  0  0  0  0
  9 12  1  0  0  0  0
M  END
>  <CdId>
1790

>  <Mol Weight>
257.437

>  <Formula>
C4H8Cl3O4P

>  <ID>
T1329

>  <Name>
Chlorophos

>  <CAS>
52-68-6

>  <Approved status>
Other countries

>  <Disease>
Others

>  <Indication>
Pesticide; Vet Drug

>  <Pathways>
Neuroscience

>  <Target>
ChE inhibitor

>  <Receptor>
ChE

$$$$
