Cilengitide
 OpenBabel02212023462D

 42 43  0  0  1  0  0  0  0  0999 V2000
    2.2253    2.3368    0.0000 C   0  0  0  0  0  0  0  0  0  0  0  0
    2.6842    1.6220    0.0000 C   0  0  0  0  0  0  0  0  0  0  0  0
    3.1457    2.3397    0.0000 C   0  0  0  0  0  0  0  0  0  0  0  0
    2.6836    0.7207    0.0000 C   0  0  2  0  0  0  0  0  0  0  0  0
    3.4718    0.9642    0.0000 N   0  0  0  0  0  0  0  0  0  0  0  0
    4.0294    1.6128    0.0000 C   0  0  0  0  0  0  0  0  0  0  0  0
    3.9470    0.2898    0.0000 C   0  0  0  0  0  0  0  0  0  0  0  0
    4.6858    0.7403    0.0000 O   0  0  0  0  0  0  0  0  0  0  0  0
    3.3719   -0.1514    0.0000 C   0  0  1  0  0  0  0  0  0  0  0  0
    4.1944   -0.6395    0.0000 C   0  0  0  0  0  0  0  0  0  0  0  0
    4.4254   -1.4169    0.0000 C   0  0  0  0  0  0  0  0  0  0  0  0
    5.2278   -1.6088    0.0000 C   0  0  0  0  0  0  0  0  0  0  0  0
    5.4628   -2.3996    0.0000 C   0  0  0  0  0  0  0  0  0  0  0  0
    4.8954   -2.9985    0.0000 C   0  0  0  0  0  0  0  0  0  0  0  0
    4.0931   -2.8066    0.0000 C   0  0  0  0  0  0  0  0  0  0  0  0
    3.8581   -2.0158    0.0000 C   0  0  0  0  0  0  0  0  0  0  0  0
    3.4945   -1.2723    0.0000 N   0  0  0  0  0  0  0  0  0  0  0  0
    2.8201   -1.7475    0.0000 C   0  0  0  0  0  0  0  0  0  0  0  0
    2.0657   -1.5355    0.0000 O   0  0  0  0  0  0  0  0  0  0  0  0
    2.8944   -2.5691    0.0000 C   0  0  2  0  0  0  0  0  0  0  0  0
    3.5543   -3.1046    0.0000 C   0  0  0  0  0  0  0  0  0  0  0  0
    3.8523   -3.9161    0.0000 C   0  0  0  0  0  0  0  0  0  0  0  0
    4.6652   -4.0571    0.0000 O   0  0  0  0  0  0  0  0  0  0  0  0
    3.3238   -4.5496    0.0000 O   0  0  0  0  0  0  0  0  0  0  0  0
    2.2199   -3.0442    0.0000 N   0  0  0  0  0  0  0  0  0  0  0  0
    1.4712   -2.6977    0.0000 C   0  0  0  0  0  0  0  0  0  0  0  0
    0.8509   -3.2989    0.0000 O   0  0  0  0  0  0  0  0  0  0  0  0
    1.3970   -1.8761    0.0000 C   0  0  0  0  0  0  0  0  0  0  0  0
    0.6482   -1.5296    0.0000 N   0  0  0  0  0  0  0  0  0  0  0  0
    0.5740   -0.7079    0.0000 C   0  0  0  0  0  0  0  0  0  0  0  0
   -0.2811   -0.5609    0.0000 O   0  0  0  0  0  0  0  0  0  0  0  0
    1.2484   -0.2328    0.0000 C   0  0  2  0  0  0  0  0  0  0  0  0
    2.0170   -0.4491    0.0000 C   0  0  0  0  0  0  0  0  0  0  0  0
    2.8132   -0.6808    0.0000 C   0  0  0  0  0  0  0  0  0  0  0  0
    3.7171   -0.6009    0.0000 C   0  0  0  0  0  0  0  0  0  0  0  0
    4.6892   -0.3612    0.0000 N   0  0  0  0  0  0  0  0  0  0  0  0
    5.5341   -0.4491    0.0000 C   0  0  0  0  0  0  0  0  0  0  0  0
    6.0184    0.2188    0.0000 N   0  0  0  0  0  0  0  0  0  0  0  0
    5.8704   -1.2025    0.0000 N   0  0  0  0  0  0  0  0  0  0  0  0
    1.1741    0.5889    0.0000 N   0  0  0  0  0  0  0  0  0  0  0  0
    1.8486    1.0640    0.0000 C   0  0  0  0  0  0  0  0  0  0  0  0
    1.2136    1.6359    0.0000 O   0  0  0  0  0  0  0  0  0  0  0  0
  1  2  1  0  0  0  0
  2  3  1  0  0  0  0
  4  2  1  1  0  0  0
  4  5  1  0  0  0  0
  4 41  1  0  0  0  0
  5  6  1  0  0  0  0
  5  7  1  0  0  0  0
  7  8  2  0  0  0  0
  7  9  1  0  0  0  0
  9 10  1  6  0  0  0
  9 17  1  0  0  0  0
 10 11  1  0  0  0  0
 11 12  2  0  0  0  0
 11 16  1  0  0  0  0
 12 13  1  0  0  0  0
 13 14  2  0  0  0  0
 14 15  1  0  0  0  0
 15 16  2  0  0  0  0
 17 18  1  0  0  0  0
 18 19  2  0  0  0  0
 18 20  1  0  0  0  0
 20 21  1  6  0  0  0
 20 25  1  0  0  0  0
 21 22  1  0  0  0  0
 22 23  1  0  0  0  0
 22 24  2  0  0  0  0
 25 26  1  0  0  0  0
 26 27  2  0  0  0  0
 26 28  1  0  0  0  0
 28 29  1  0  0  0  0
 29 30  1  0  0  0  0
 30 31  2  0  0  0  0
 30 32  1  0  0  0  0
 32 33  1  1  0  0  0
 32 40  1  0  0  0  0
 33 34  1  0  0  0  0
 34 35  1  0  0  0  0
 35 36  1  0  0  0  0
 36 37  1  0  0  0  0
 37 38  1  0  0  0  0
 37 39  2  0  0  0  0
 40 41  1  0  0  0  0
 41 42  2  0  0  0  0
M  END
>  <CdId>
3183

>  <Formula>
C27H40N8O7

>  <ID>
T2494

>  <Name>
Cilengitide

>  <Synonyms>
EMD 121974

>  <CAS>
188968-51-6

>  <MolWt>
588.66

>  <Pathways>
Cytoskeletal Signaling

>  <Target>
Integrin inhibitor

>  <Receptor>
¦ÁV¦Â3 integrin; ¦ÁV¦Â5 integrin

$$$$
