Cinacalcet hydrochloride
 OpenBabel02212023462D

 27 28  0  0  1  0  0  0  0  0999 V2000
   -1.4839    1.0788    0.0000 C   0  0  0  0  0  0  0  0  0  0  0  0
   -1.4839    0.2538    0.0000 C   0  0  2  0  0  0  0  0  0  0  0  0
   -2.1984   -0.1587    0.0000 C   0  0  0  0  0  0  0  0  0  0  0  0
   -2.1984   -0.9837    0.0000 C   0  0  0  0  0  0  0  0  0  0  0  0
   -2.9128   -1.3962    0.0000 C   0  0  0  0  0  0  0  0  0  0  0  0
   -3.6273   -0.9837    0.0000 C   0  0  0  0  0  0  0  0  0  0  0  0
   -3.6273   -0.1587    0.0000 C   0  0  0  0  0  0  0  0  0  0  0  0
   -4.3418    0.2538    0.0000 C   0  0  0  0  0  0  0  0  0  0  0  0
   -4.3418    1.0788    0.0000 C   0  0  0  0  0  0  0  0  0  0  0  0
   -3.6273    1.4913    0.0000 C   0  0  0  0  0  0  0  0  0  0  0  0
   -2.9128    1.0788    0.0000 C   0  0  0  0  0  0  0  0  0  0  0  0
   -2.9128    0.2538    0.0000 C   0  0  0  0  0  0  0  0  0  0  0  0
   -0.7694   -0.1587    0.0000 N   0  0  0  0  0  0  0  0  0  0  0  0
   -0.0550    0.2538    0.0000 C   0  0  0  0  0  0  0  0  0  0  0  0
    0.6595   -0.1587    0.0000 C   0  0  0  0  0  0  0  0  0  0  0  0
    1.3740    0.2538    0.0000 C   0  0  0  0  0  0  0  0  0  0  0  0
    2.0885   -0.1587    0.0000 C   0  0  0  0  0  0  0  0  0  0  0  0
    2.8029    0.2538    0.0000 C   0  0  0  0  0  0  0  0  0  0  0  0
    3.5174   -0.1587    0.0000 C   0  0  0  0  0  0  0  0  0  0  0  0
    3.5174   -0.9837    0.0000 C   0  0  0  0  0  0  0  0  0  0  0  0
    2.8029   -1.3962    0.0000 C   0  0  0  0  0  0  0  0  0  0  0  0
    2.0885   -0.9837    0.0000 C   0  0  0  0  0  0  0  0  0  0  0  0
    4.2319    0.2538    0.0000 C   0  0  0  0  0  0  0  0  0  0  0  0
    4.9463    0.6663    0.0000 F   0  0  0  0  0  0  0  0  0  0  0  0
    4.6444   -0.4606    0.0000 F   0  0  0  0  0  0  0  0  0  0  0  0
    3.8194    0.9683    0.0000 F   0  0  0  0  0  0  0  0  0  0  0  0
    7.1856    0.0000    0.0000 Cl  0  0  0  0  0  0  0  0  0  0  0  0
  2  1  1  1  0  0  0
  2  3  1  0  0  0  0
  2 13  1  0  0  0  0
  3  4  2  0  0  0  0
  3 12  1  0  0  0  0
  4  5  1  0  0  0  0
  5  6  2  0  0  0  0
  6  7  1  0  0  0  0
  7  8  2  0  0  0  0
  7 12  1  0  0  0  0
  8  9  1  0  0  0  0
  9 10  2  0  0  0  0
 10 11  1  0  0  0  0
 11 12  2  0  0  0  0
 13 14  1  0  0  0  0
 14 15  1  0  0  0  0
 15 16  1  0  0  0  0
 16 17  1  0  0  0  0
 17 18  2  0  0  0  0
 17 22  1  0  0  0  0
 18 19  1  0  0  0  0
 19 20  2  0  0  0  0
 19 23  1  0  0  0  0
 20 21  1  0  0  0  0
 21 22  2  0  0  0  0
 23 24  1  0  0  0  0
 23 25  1  0  0  0  0
 23 26  1  0  0  0  0
M  END
>  <CdId>
1071

>  <Mol Weight>
393.873

>  <Formula>
C22H23ClF3N

>  <ID>
T2406

>  <Name>
Cinacalcet hydrochloride

>  <Synonyms>
AMG-073 hydrochloride;Cinacalcet

>  <CAS>
364782-34-3

>  <Approved status>
FDA

>  <Disease>
Endocrine system

>  <Indication>
Hypercalcaemia; Hyperparathyroidism;

>  <Pathways>
GPCR/G Protein

>  <Target>
CaSR activator

>  <Receptor>
CaSR

$$$$
