DL-5-Hydroxylysine hydrochloride
 OpenBabel02212023462D

 12 10  0  0  0  0  0  0  0  0999 V2000
    0.0000    0.0000    0.0000 Cl  0  0  0  0  0  0  0  0  0  0  0  0
    2.2393   -0.1125    0.0000 N   0  0  0  0  0  0  0  0  0  0  0  0
    2.9538    0.3000    0.0000 C   0  0  0  0  0  0  0  0  0  0  0  0
    3.6682   -0.1125    0.0000 C   0  0  3  0  0  0  0  0  0  0  0  0
    3.6682   -0.9375    0.0000 O   0  0  0  0  0  0  0  0  0  0  0  0
    4.3827    0.3000    0.0000 C   0  0  0  0  0  0  0  0  0  0  0  0
    5.0972   -0.1125    0.0000 C   0  0  0  0  0  0  0  0  0  0  0  0
    5.8116    0.3000    0.0000 C   0  0  3  0  0  0  0  0  0  0  0  0
    5.8116    1.1250    0.0000 N   0  0  0  0  0  0  0  0  0  0  0  0
    6.5261   -0.1125    0.0000 C   0  0  0  0  0  0  0  0  0  0  0  0
    7.2406    0.3000    0.0000 O   0  0  0  0  0  0  0  0  0  0  0  0
    6.5261   -0.9375    0.0000 O   0  0  0  0  0  0  0  0  0  0  0  0
  2  3  1  0  0  0  0
  3  4  1  0  0  0  0
  4  5  1  0  0  0  0
  4  6  1  0  0  0  0
  6  7  1  0  0  0  0
  7  8  1  0  0  0  0
  8  9  1  0  0  0  0
  8 10  1  0  0  0  0
 10 11  1  0  0  0  0
 10 12  2  0  0  0  0
M  END
>  <CdId>
1224

>  <Formula>
C6H15ClN2O3

>  <ID>
T4937

>  <Name>
DL-5-Hydroxylysine hydrochloride

>  <Synonyms>
5-hydroxylysine hydrochloride

>  <CAS>
13204-98-3

>  <MolWt>
198.65

>  <Pathways>
Others

>  <Target>
Others

>  <Receptor>
Others

$$$$
