FTI 277 hydrochloride
 OpenBabel02212023462D

 31 31  0  0  1  0  0  0  0  0999 V2000
   -2.7150    2.3100    0.0000 C   0  0  0  0  0  0  0  0  0  0  0  0
   -2.7150    1.4850    0.0000 O   0  0  0  0  0  0  0  0  0  0  0  0
   -2.0005    1.0725    0.0000 C   0  0  0  0  0  0  0  0  0  0  0  0
   -1.2860    1.4850    0.0000 O   0  0  0  0  0  0  0  0  0  0  0  0
   -2.0005    0.2475    0.0000 C   0  0  2  0  0  0  0  0  0  0  0  0
   -2.7150   -0.1650    0.0000 C   0  0  0  0  0  0  0  0  0  0  0  0
   -3.4295    0.2475    0.0000 C   0  0  0  0  0  0  0  0  0  0  0  0
   -4.1439   -0.1650    0.0000 S   0  0  0  0  0  0  0  0  0  0  0  0
   -4.8584    0.2475    0.0000 C   0  0  0  0  0  0  0  0  0  0  0  0
   -1.2860   -0.1650    0.0000 N   0  0  0  0  0  0  0  0  0  0  0  0
   -0.5716    0.2475    0.0000 C   0  0  0  0  0  0  0  0  0  0  0  0
   -0.5716    1.0725    0.0000 O   0  0  0  0  0  0  0  0  0  0  0  0
    0.1429   -0.1650    0.0000 C   0  0  0  0  0  0  0  0  0  0  0  0
    0.8574    0.2475    0.0000 C   0  0  0  0  0  0  0  0  0  0  0  0
    1.5718   -0.1650    0.0000 C   0  0  0  0  0  0  0  0  0  0  0  0
    1.5718   -0.9900    0.0000 C   0  0  0  0  0  0  0  0  0  0  0  0
    0.8574   -1.4025    0.0000 C   0  0  0  0  0  0  0  0  0  0  0  0
    0.1429   -0.9900    0.0000 C   0  0  0  0  0  0  0  0  0  0  0  0
    2.2863   -1.4025    0.0000 N   0  0  0  0  0  0  0  0  0  0  0  0
    2.2863   -2.2275    0.0000 C   0  0  0  0  0  0  0  0  0  0  0  0
    3.0008   -2.6400    0.0000 C   0  0  2  0  0  0  0  0  0  0  0  0
    3.0008   -3.4650    0.0000 C   0  0  0  0  0  0  0  0  0  0  0  0
    3.7152   -3.8775    0.0000 S   0  0  0  0  0  0  0  0  0  0  0  0
    3.7152   -2.2275    0.0000 N   0  0  0  0  0  0  0  0  0  0  0  0
    0.8574    1.0725    0.0000 C   0  0  0  0  0  0  0  0  0  0  0  0
    0.1429    1.4850    0.0000 C   0  0  0  0  0  0  0  0  0  0  0  0
    0.1429    2.3100    0.0000 C   0  0  0  0  0  0  0  0  0  0  0  0
    0.8574    2.7225    0.0000 C   0  0  0  0  0  0  0  0  0  0  0  0
    1.5718    2.3100    0.0000 C   0  0  0  0  0  0  0  0  0  0  0  0
    1.5718    1.4850    0.0000 C   0  0  0  0  0  0  0  0  0  0  0  0
    5.9545    0.0000    0.0000 Cl  0  0  0  0  0  0  0  0  0  0  0  0
  1  2  1  0  0  0  0
  2  3  1  0  0  0  0
  3  4  2  0  0  0  0
  3  5  1  0  0  0  0
  5  6  1  1  0  0  0
  5 10  1  0  0  0  0
  6  7  1  0  0  0  0
  7  8  1  0  0  0  0
  8  9  1  0  0  0  0
 10 11  1  0  0  0  0
 11 12  2  0  0  0  0
 11 13  1  0  0  0  0
 13 14  2  0  0  0  0
 13 18  1  0  0  0  0
 14 15  1  0  0  0  0
 14 25  1  0  0  0  0
 15 16  2  0  0  0  0
 16 17  1  0  0  0  0
 16 19  1  0  0  0  0
 17 18  2  0  0  0  0
 19 20  1  0  0  0  0
 20 21  1  0  0  0  0
 21 22  1  0  0  0  0
 21 24  1  1  0  0  0
 22 23  1  0  0  0  0
 25 26  2  0  0  0  0
 25 30  1  0  0  0  0
 26 27  1  0  0  0  0
 27 28  2  0  0  0  0
 28 29  1  0  0  0  0
 29 30  2  0  0  0  0
M  END
>  <CdId>
3004

>  <Formula>
C22H30ClN3O3S2

>  <ID>
T2700

>  <Name>
FTI 277 hydrochloride

>  <Synonyms>
FTI 277 HCl

>  <CAS>
180977-34-8

>  <MolWt>
484.07

>  <Pathways>
Metabolism

>  <Target>
Transferase inhibitor

>  <Receptor>
Farnesyl transferase (FTase); GGTase I

$$$$
