Gamithromycin
 OpenBabel02212023462D

 54 56  0  0  1  0  0  0  0  0999 V2000
    3.7141    3.3455    0.0000 C   0  0  0  0  0  0  0  0  0  0  0  0
    4.3118    2.7911    0.0000 C   0  0  0  0  0  0  0  0  0  0  0  0
    4.4501    1.9401    0.0000 C   0  0  0  0  0  0  0  0  0  0  0  0
    5.0483    1.3099    0.0000 N   0  0  0  0  0  0  0  0  0  0  0  0
    5.3033    2.0945    0.0000 C   0  0  0  0  0  0  0  0  0  0  0  0
    6.1283    2.0945    0.0000 C   0  0  1  0  0  0  0  0  0  0  0  0
    6.3832    1.3099    0.0000 C   0  0  2  0  0  0  0  0  0  0  0  0
    7.1447    0.8250    0.0000 C   0  0  2  0  0  0  0  0  0  0  0  0
    7.1447    0.0000    0.0000 C   0  0  2  0  0  0  0  0  0  0  0  0
    7.8592   -0.4125    0.0000 O   0  0  0  0  0  0  0  0  0  0  0  0
    7.8592   -1.2375    0.0000 C   0  0  0  0  0  0  0  0  0  0  0  0
    8.7116   -1.1739    0.0000 O   0  0  0  0  0  0  0  0  0  0  0  0
    7.1447   -1.6500    0.0000 C   0  0  1  0  0  0  0  0  0  0  0  0
    6.4302   -1.2375    0.0000 C   0  0  2  0  0  0  0  0  0  0  0  0
    5.7158   -1.6500    0.0000 C   0  0  1  0  0  0  0  0  0  0  0  0
    5.0013   -1.2375    0.0000 C   0  0  2  0  0  0  0  0  0  0  0  0
    5.0013   -0.4125    0.0000 C   0  0  2  0  0  0  0  0  0  0  0  0
    4.2868   -0.0000    0.0000 C   0  0  0  0  0  0  0  0  0  0  0  0
    4.2868    0.8250    0.0000 C   0  0  1  0  0  0  0  0  0  0  0  0
    3.4705    1.0581    0.0000 C   0  0  0  0  0  0  0  0  0  0  0  0
    4.3744   -0.9620    0.0000 C   0  0  0  0  0  0  0  0  0  0  0  0
    4.0457   -0.5017    0.0000 O   0  0  0  0  0  0  0  0  0  0  0  0
    4.2886   -1.6883    0.0000 O   0  0  0  0  0  0  0  0  0  0  0  0
    4.2868   -2.4750    0.0000 C   0  0  1  0  0  0  0  0  0  0  0  0
    3.5724   -2.8875    0.0000 C   0  0  1  0  0  0  0  0  0  0  0  0
    3.5724   -3.7125    0.0000 C   0  0  2  0  0  0  0  0  0  0  0  0
    4.2868   -4.1250    0.0000 C   0  0  0  0  0  0  0  0  0  0  0  0
    5.0013   -3.7125    0.0000 C   0  0  2  0  0  0  0  0  0  0  0  0
    5.0013   -2.8875    0.0000 O   0  0  0  0  0  0  0  0  0  0  0  0
    5.7158   -4.1250    0.0000 C   0  0  0  0  0  0  0  0  0  0  0  0
    2.8579   -4.1250    0.0000 N   0  0  0  0  0  0  0  0  0  0  0  0
    2.8579   -4.9500    0.0000 C   0  0  0  0  0  0  0  0  0  0  0  0
    2.1434   -3.7125    0.0000 C   0  0  0  0  0  0  0  0  0  0  0  0
    2.7766   -2.5216    0.0000 O   0  0  0  0  0  0  0  0  0  0  0  0
    6.0157   -2.4583    0.0000 C   0  0  0  0  0  0  0  0  0  0  0  0
    6.3642   -2.1222    0.0000 O   0  0  0  0  0  0  0  0  0  0  0  0
    7.1447   -2.4750    0.0000 C   0  0  1  0  0  0  0  0  0  0  0  0
    7.8592   -2.0625    0.0000 C   0  0  0  0  0  0  0  0  0  0  0  0
    8.5737   -2.4750    0.0000 C   0  0  1  0  0  0  0  0  0  0  0  0
    8.5737   -3.3000    0.0000 C   0  0  2  0  0  0  0  0  0  0  0  0
    7.8592   -3.7125    0.0000 C   0  0  1  0  0  0  0  0  0  0  0  0
    7.1447   -3.3000    0.0000 O   0  0  0  0  0  0  0  0  0  0  0  0
    7.8592   -4.5375    0.0000 C   0  0  0  0  0  0  0  0  0  0  0  0
    9.2881   -3.7125    0.0000 O   0  0  0  0  0  0  0  0  0  0  0  0
    9.0108   -1.7754    0.0000 C   0  0  0  0  0  0  0  0  0  0  0  0
    9.3981   -2.4462    0.0000 O   0  0  0  0  0  0  0  0  0  0  0  0
    9.8353   -3.1458    0.0000 C   0  0  0  0  0  0  0  0  0  0  0  0
    7.6471   -2.5502    0.0000 C   0  0  0  0  0  0  0  0  0  0  0  0
    8.0844    0.2346    0.0000 C   0  0  0  0  0  0  0  0  0  0  0  0
    8.9414    0.2293    0.0000 C   0  0  0  0  0  0  0  0  0  0  0  0
    7.3511    1.6891    0.0000 C   0  0  0  0  0  0  0  0  0  0  0  0
    7.9782    1.1551    0.0000 O   0  0  0  0  0  0  0  0  0  0  0  0
    5.9493    0.5699    0.0000 O   0  0  0  0  0  0  0  0  0  0  0  0
    6.5808    2.8484    0.0000 C   0  0  0  0  0  0  0  0  0  0  0  0
  1  2  1  0  0  0  0
  2  3  1  0  0  0  0
  3  4  1  0  0  0  0
  4  5  1  0  0  0  0
  4 19  1  0  0  0  0
  5  6  1  0  0  0  0
  6  7  1  0  0  0  0
  6 54  1  6  0  0  0
  7  8  1  6  0  0  0
  7 53  1  0  0  0  0
  8 51  1  1  0  0  0
  8 52  1  0  0  0  0
  9  8  1  1  0  0  0
  9 10  1  0  0  0  0
  9 49  1  0  0  0  0
 10 11  1  0  0  0  0
 11 12  2  0  0  0  0
 11 13  1  0  0  0  0
 13 14  1  0  0  0  0
 13 48  1  6  0  0  0
 14 15  1  0  0  0  0
 14 36  1  6  0  0  0
 15 16  1  0  0  0  0
 15 35  1  6  0  0  0
 16 17  1  1  0  0  0
 16 23  1  0  0  0  0
 17 18  1  0  0  0  0
 17 21  1  1  0  0  0
 17 22  1  0  0  0  0
 18 19  1  0  0  0  0
 19 20  1  1  0  0  0
 24 23  1  6  0  0  0
 24 25  1  0  0  0  0
 24 29  1  0  0  0  0
 25 26  1  0  0  0  0
 25 34  1  1  0  0  0
 26 27  1  0  0  0  0
 26 31  1  6  0  0  0
 27 28  1  0  0  0  0
 28 29  1  0  0  0  0
 28 30  1  6  0  0  0
 31 32  1  0  0  0  0
 31 33  1  0  0  0  0
 37 36  1  1  0  0  0
 37 38  1  0  0  0  0
 37 42  1  0  0  0  0
 38 39  1  0  0  0  0
 39 45  1  6  0  0  0
 39 46  1  0  0  0  0
 40 39  1  1  0  0  0
 40 41  1  0  0  0  0
 40 44  1  0  0  0  0
 41 42  1  0  0  0  0
 41 43  1  6  0  0  0
 46 47  1  0  0  0  0
 49 50  1  0  0  0  0
M  END
>  <CdId>
2210

>  <Formula>
C40H76N2O12

>  <ID>
T3629

>  <Name>
Gamithromycin

>  <Synonyms>
ML-1709460

>  <CAS>
145435-72-9

>  <MolWt>
777.04

>  <Pathways>
Microbiology&Virology

>  <Target>
Antibacterial

>  <Receptor>
Antibacterial

$$$$
