Isopropamide Iodide
 OpenBabel02212023462D

 27 27  0  0  0  0  0  0  0  0999 V2000
    0.0000    0.0000    0.0000 I   0  5  0  0  0  0  0  0  0  0  0  0
    7.8117    1.6804    0.0000 C   0  0  0  0  0  0  0  0  0  0  0  0
    7.4380    0.9449    0.0000 C   0  0  0  0  0  0  0  0  0  0  0  0
    7.8882    0.2535    0.0000 C   0  0  0  0  0  0  0  0  0  0  0  0
    6.6142    0.9008    0.0000 N   0  3  0  0  0  0  0  0  0  0  0  0
    6.5700    1.7246    0.0000 C   0  0  0  0  0  0  0  0  0  0  0  0
    5.7904    0.8566    0.0000 C   0  0  0  0  0  0  0  0  0  0  0  0
    5.4167    0.1211    0.0000 C   0  0  0  0  0  0  0  0  0  0  0  0
    4.5929    0.0770    0.0000 C   0  0  0  0  0  0  0  0  0  0  0  0
    4.5487    0.9008    0.0000 C   0  0  0  0  0  0  0  0  0  0  0  0
    5.2401    1.3509    0.0000 N   0  0  0  0  0  0  0  0  0  0  0  0
    3.8132    1.2744    0.0000 O   0  0  0  0  0  0  0  0  0  0  0  0
    3.7691    0.0328    0.0000 C   0  0  0  0  0  0  0  0  0  0  0  0
    3.3954   -0.7027    0.0000 C   0  0  0  0  0  0  0  0  0  0  0  0
    2.5716   -0.7469    0.0000 C   0  0  0  0  0  0  0  0  0  0  0  0
    2.1214   -0.0555    0.0000 C   0  0  0  0  0  0  0  0  0  0  0  0
    2.4951    0.6800    0.0000 C   0  0  0  0  0  0  0  0  0  0  0  0
    3.3189    0.7242    0.0000 C   0  0  0  0  0  0  0  0  0  0  0  0
    4.6370   -0.7469    0.0000 C   0  0  0  0  0  0  0  0  0  0  0  0
    5.3726   -1.1205    0.0000 C   0  0  0  0  0  0  0  0  0  0  0  0
    5.4167   -1.9444    0.0000 C   0  0  0  0  0  0  0  0  0  0  0  0
    4.7253   -2.3945    0.0000 C   0  0  0  0  0  0  0  0  0  0  0  0
    3.9898   -2.0208    0.0000 C   0  0  0  0  0  0  0  0  0  0  0  0
    3.9457   -1.1970    0.0000 C   0  0  0  0  0  0  0  0  0  0  0  0
    6.6583    0.0770    0.0000 C   0  0  0  0  0  0  0  0  0  0  0  0
    7.3939   -0.2967    0.0000 C   0  0  0  0  0  0  0  0  0  0  0  0
    5.9670   -0.3732    0.0000 C   0  0  0  0  0  0  0  0  0  0  0  0
  2  3  1  0  0  0  0
  3  4  1  0  0  0  0
  3  5  1  0  0  0  0
  5  6  1  0  0  0  0
  5  7  1  0  0  0  0
  5 25  1  0  0  0  0
  7  8  1  0  0  0  0
  8  9  1  0  0  0  0
  9 10  1  0  0  0  0
  9 13  1  0  0  0  0
  9 19  1  0  0  0  0
 10 11  1  0  0  0  0
 10 12  2  0  0  0  0
 13 14  2  0  0  0  0
 13 18  1  0  0  0  0
 14 15  1  0  0  0  0
 15 16  2  0  0  0  0
 16 17  1  0  0  0  0
 17 18  2  0  0  0  0
 19 20  2  0  0  0  0
 19 24  1  0  0  0  0
 20 21  1  0  0  0  0
 21 22  2  0  0  0  0
 22 23  1  0  0  0  0
 23 24  2  0  0  0  0
 25 26  1  0  0  0  0
 25 27  1  0  0  0  0
M  CHG  2   1  -1   5   1
M  END
>  <CdId>
1087

>  <Formula>
C23H33IN2O

>  <ID>
T5051

>  <Name>
Isopropamide Iodide

>  <CAS>
71-81-8

>  <MolWt>
480.43

>  <Pathways>
Neuroscience

>  <Target>
AChR

>  <Receptor>
muscarinic receptor

$$$$
