IWR-1-endo
 OpenBabel02212023462D

 31 36  0  0  1  0  0  0  0  0999 V2000
   -3.6792    1.3372    0.0000 O   0  0  0  0  0  0  0  0  0  0  0  0
   -3.6640    0.5123    0.0000 C   0  0  0  0  0  0  0  0  0  0  0  0
   -4.3707    0.0867    0.0000 N   0  0  0  0  0  0  0  0  0  0  0  0
   -5.0927    0.4860    0.0000 C   0  0  0  0  0  0  0  0  0  0  0  0
   -5.7994    0.0604    0.0000 C   0  0  0  0  0  0  0  0  0  0  0  0
   -6.5214    0.4597    0.0000 C   0  0  0  0  0  0  0  0  0  0  0  0
   -6.5366    1.2846    0.0000 C   0  0  0  0  0  0  0  0  0  0  0  0
   -5.8298    1.7102    0.0000 C   0  0  0  0  0  0  0  0  0  0  0  0
   -5.8450    2.5350    0.0000 C   0  0  0  0  0  0  0  0  0  0  0  0
   -5.1382    2.9606    0.0000 C   0  0  0  0  0  0  0  0  0  0  0  0
   -4.4163    2.5613    0.0000 C   0  0  0  0  0  0  0  0  0  0  0  0
   -4.4011    1.7365    0.0000 N   0  0  0  0  0  0  0  0  0  0  0  0
   -5.1079    1.3109    0.0000 C   0  0  0  0  0  0  0  0  0  0  0  0
   -2.9420    0.1130    0.0000 C   0  0  0  0  0  0  0  0  0  0  0  0
   -2.2353    0.5386    0.0000 C   0  0  0  0  0  0  0  0  0  0  0  0
   -1.5133    0.1393    0.0000 C   0  0  0  0  0  0  0  0  0  0  0  0
   -1.4982   -0.6855    0.0000 C   0  0  0  0  0  0  0  0  0  0  0  0
   -2.2049   -1.1111    0.0000 C   0  0  0  0  0  0  0  0  0  0  0  0
   -2.9269   -0.7118    0.0000 C   0  0  0  0  0  0  0  0  0  0  0  0
   -0.7762   -1.0848    0.0000 N   0  0  0  0  0  0  0  0  0  0  0  0
   -0.6749   -1.9036    0.0000 C   0  0  0  0  0  0  0  0  0  0  0  0
   -1.2777   -2.4668    0.0000 O   0  0  0  0  0  0  0  0  0  0  0  0
    0.1351   -2.0602    0.0000 C   0  0  1  0  0  0  0  0  0  0  0  0
    0.9106   -1.6699    0.0000 C   0  0  2  0  0  0  0  0  0  0  0  0
    0.9807   -0.1341    0.0000 C   0  0  0  0  0  0  0  0  0  0  0  0
    1.1407   -0.9495    0.0000 C   0  0  1  0  0  0  0  0  0  0  0  0
    1.9362   -1.4148    0.0000 C   0  0  0  0  0  0  0  0  0  0  0  0
    1.6411   -2.0402    0.0000 C   0  0  0  0  0  0  0  0  0  0  0  0
    0.5344   -1.3383    0.0000 C   0  0  1  0  0  0  0  0  0  0  0  0
   -0.0288   -0.7354    0.0000 C   0  0  0  0  0  0  0  0  0  0  0  0
    0.1278    0.0746    0.0000 O   0  0  0  0  0  0  0  0  0  0  0  0
  1  2  2  0  0  0  0
  2  3  1  0  0  0  0
  2 14  1  0  0  0  0
  3  4  1  0  0  0  0
  4  5  2  0  0  0  0
  4 13  1  0  0  0  0
  5  6  1  0  0  0  0
  6  7  2  0  0  0  0
  7  8  1  0  0  0  0
  8  9  2  0  0  0  0
  8 13  1  0  0  0  0
  9 10  1  0  0  0  0
 10 11  2  0  0  0  0
 11 12  1  0  0  0  0
 12 13  2  0  0  0  0
 14 15  2  0  0  0  0
 14 19  1  0  0  0  0
 15 16  1  0  0  0  0
 16 17  2  0  0  0  0
 17 18  1  0  0  0  0
 17 20  1  0  0  0  0
 18 19  2  0  0  0  0
 20 21  1  0  0  0  0
 20 30  1  0  0  0  0
 21 22  2  0  0  0  0
 23 21  1  6  0  0  0
 23 24  1  0  0  0  0
 23 29  1  0  0  0  0
 24 25  1  6  0  0  0
 24 28  1  0  0  0  0
 26 25  1  1  0  0  0
 26 27  1  0  0  0  0
 26 29  1  0  0  0  0
 27 28  2  0  0  0  0
 29 30  1  6  0  0  0
 30 31  2  0  0  0  0
M  END
>  <CdId>
3048

>  <Formula>
C25H19N3O3

>  <ID>
T2651

>  <Name>
IWR-1-endo

>  <Synonyms>
endo-IWR 1; IWR-1

>  <CAS>
1127442-82-3

>  <MolWt>
409.44

>  <Pathways>
Cytoskeletal Signaling; Stem Cells

>  <Target>
Wnt/beta-catenin inhibitor

>  <Receptor>
Wnt

$$$$
