L-Anserine nitrate salt
 OpenBabel02212023462D

 21 20  0  0  1  0  0  0  0  0999 V2000
    0.4125    0.7145    0.0000 O   0  0  0  0  0  0  0  0  0  0  0  0
    0.0000   -0.0000    0.0000 N   0  3  0  0  0  0  0  0  0  0  0  0
    0.4125   -0.7145    0.0000 O   0  5  0  0  0  0  0  0  0  0  0  0
   -0.8250   -0.0000    0.0000 O   0  0  0  0  0  0  0  0  0  0  0  0
    6.4118    2.0621    0.0000 C   0  0  0  0  0  0  0  0  0  0  0  0
    7.0248    1.5101    0.0000 N   0  0  0  0  0  0  0  0  0  0  0  0
    7.8318    1.6816    0.0000 C   0  0  0  0  0  0  0  0  0  0  0  0
    8.2443    0.9671    0.0000 N   0  0  0  0  0  0  0  0  0  0  0  0
    7.6923    0.3540    0.0000 C   0  0  0  0  0  0  0  0  0  0  0  0
    6.9386    0.6896    0.0000 C   0  0  0  0  0  0  0  0  0  0  0  0
    6.2241    0.2771    0.0000 C   0  0  0  0  0  0  0  0  0  0  0  0
    6.2241   -0.5479    0.0000 C   0  0  2  0  0  0  0  0  0  0  0  0
    5.5097   -0.9604    0.0000 N   0  0  0  0  0  0  0  0  0  0  0  0
    4.7952   -0.5479    0.0000 C   0  0  0  0  0  0  0  0  0  0  0  0
    4.7952    0.2771    0.0000 O   0  0  0  0  0  0  0  0  0  0  0  0
    4.0807   -0.9604    0.0000 C   0  0  0  0  0  0  0  0  0  0  0  0
    3.3663   -0.5479    0.0000 C   0  0  0  0  0  0  0  0  0  0  0  0
    2.6518   -0.9604    0.0000 N   0  0  0  0  0  0  0  0  0  0  0  0
    6.9386   -0.9604    0.0000 C   0  0  0  0  0  0  0  0  0  0  0  0
    6.9386   -1.7854    0.0000 O   0  0  0  0  0  0  0  0  0  0  0  0
    7.6531   -0.5479    0.0000 O   0  0  0  0  0  0  0  0  0  0  0  0
  1  2  1  0  0  0  0
  2  3  1  0  0  0  0
  2  4  2  0  0  0  0
  5  6  1  0  0  0  0
  6  7  1  0  0  0  0
  6 10  1  0  0  0  0
  7  8  2  0  0  0  0
  8  9  1  0  0  0  0
  9 10  2  0  0  0  0
 10 11  1  0  0  0  0
 12 11  1  1  0  0  0
 12 13  1  0  0  0  0
 12 19  1  0  0  0  0
 13 14  1  0  0  0  0
 14 15  2  0  0  0  0
 14 16  1  0  0  0  0
 16 17  1  0  0  0  0
 17 18  1  0  0  0  0
 19 20  1  0  0  0  0
 19 21  2  0  0  0  0
M  CHG  2   2   1   3  -1
M  END
>  <CdId>
1348

>  <Formula>
C10H17N5O6

>  <ID>
T4704

>  <Name>
L-Anserine nitrate salt

>  <CAS>
10030-52-1

>  <MolWt>
303.27

>  <Pathways>
Others

>  <Target>
Others

>  <Receptor>
Others

$$$$
