L-Argininamide dihydrochloride
 OpenBabel02212023462D

 14 11  0  0  1  0  0  0  0  0999 V2000
    0.0000    0.0000    0.0000 Cl  0  0  0  0  0  0  0  0  0  0  0  0
    2.2393    0.0000    0.0000 Cl  0  0  0  0  0  0  0  0  0  0  0  0
    1.3099   -1.6500    0.0000 N   0  0  0  0  0  0  0  0  0  0  0  0
    1.3099   -2.4750    0.0000 C   0  0  1  0  0  0  0  0  0  0  0  0
    0.5954   -2.8875    0.0000 C   0  0  0  0  0  0  0  0  0  0  0  0
   -0.1191   -2.4750    0.0000 C   0  0  0  0  0  0  0  0  0  0  0  0
   -0.8335   -2.8875    0.0000 C   0  0  0  0  0  0  0  0  0  0  0  0
   -1.5480   -2.4750    0.0000 N   0  0  0  0  0  0  0  0  0  0  0  0
   -2.2625   -2.8875    0.0000 C   0  0  0  0  0  0  0  0  0  0  0  0
   -2.9770   -2.4750    0.0000 N   0  0  0  0  0  0  0  0  0  0  0  0
   -2.2625   -3.7125    0.0000 N   0  0  0  0  0  0  0  0  0  0  0  0
    2.0243   -2.8875    0.0000 C   0  0  0  0  0  0  0  0  0  0  0  0
    2.7388   -2.4750    0.0000 N   0  0  0  0  0  0  0  0  0  0  0  0
    2.0243   -3.7125    0.0000 O   0  0  0  0  0  0  0  0  0  0  0  0
  4  3  1  6  0  0  0
  4  5  1  0  0  0  0
  4 12  1  0  0  0  0
  5  6  1  0  0  0  0
  6  7  1  0  0  0  0
  7  8  1  0  0  0  0
  8  9  1  0  0  0  0
  9 10  1  0  0  0  0
  9 11  2  0  0  0  0
 12 13  1  0  0  0  0
 12 14  2  0  0  0  0
M  END
>  <CdId>
1855

>  <Formula>
C6H17Cl2N5O

>  <ID>
T4023

>  <Name>
L-Argininamide dihydrochloride

>  <Synonyms>
H-Arg-NH2.2HCl

>  <CAS>
14975-30-5

>  <MolWt>
246.14

>  <Pathways>
Others

>  <Target>
Others

>  <Receptor>
ligand binding DNA aptamers

$$$$
