L-Glutamic acid monosodium salt
 OpenBabel02212023462D

 11  9  0  0  1  0  0  0  0  0999 V2000
   -0.0714   -0.1238    0.0000 C   0  0  0  0  0  0  0  0  0  0  0  0
   -0.7859    0.2887    0.0000 C   0  0  0  0  0  0  0  0  0  0  0  0
   -1.5004   -0.1238    0.0000 C   0  0  0  0  0  0  0  0  0  0  0  0
   -2.2149    0.2888    0.0000 O   0  0  0  0  0  0  0  0  0  0  0  0
   -1.5004   -0.9487    0.0000 O   0  0  0  0  0  0  0  0  0  0  0  0
    0.6430    0.2887    0.0000 C   0  0  1  0  0  0  0  0  0  0  0  0
    1.3575   -0.1238    0.0000 C   0  0  0  0  0  0  0  0  0  0  0  0
    2.0720    0.2887    0.0000 O   0  0  0  0  0  0  0  0  0  0  0  0
    1.3575   -0.9488    0.0000 O   0  5  0  0  0  0  0  0  0  0  0  0
    0.6430    1.1137    0.0000 N   0  0  0  0  0  0  0  0  0  0  0  0
    4.3113    0.0000    0.0000 Na  0  3  0  0  0 15  0  0  0  0  0  0
  1  2  1  0  0  0  0
  1  6  1  0  0  0  0
  2  3  1  0  0  0  0
  3  4  2  0  0  0  0
  3  5  1  0  0  0  0
  6  7  1  0  0  0  0
  6 10  1  6  0  0  0
  7  8  2  0  0  0  0
  7  9  1  0  0  0  0
M  CHG  2   9  -1  11   1
M  END
>  <CdId>
1998

>  <Mol Weight>
169.1111

>  <Formula>
C5H8NNaO4

>  <ID>
T6871

>  <Name>
L-Glutamic acid monosodium salt

>  <Synonyms>
Ajinomoto;Glutacyl;Glutavene

>  <CAS>
142-47-2

>  <Approved status>
PMDA

>  <Pathways>
Neuroscience

>  <Target>
GluR

>  <Receptor>
mGluR1

$$$$
