Lanatoside C
 OpenBabel02212023462D

 69 77  0  0  1  0  0  0  0  0999 V2000
    6.7602    3.5162    0.0000 C   0  0  0  0  0  0  0  0  0  0  0  0
    7.2920    2.8855    0.0000 C   0  0  2  0  0  0  0  0  0  0  0  0
    8.1041    3.0307    0.0000 C   0  0  2  0  0  0  0  0  0  0  0  0
    8.6360    2.4000    0.0000 C   0  0  2  0  0  0  0  0  0  0  0  0
    8.3557    1.6241    0.0000 C   0  0  0  0  0  0  0  0  0  0  0  0
    7.5435    1.4789    0.0000 C   0  0  1  0  0  0  0  0  0  0  0  0
    7.0117    2.1096    0.0000 O   0  0  0  0  0  0  0  0  0  0  0  0
    7.2632    0.7029    0.0000 O   0  0  0  0  0  0  0  0  0  0  0  0
    6.4511    0.5577    0.0000 C   0  0  1  0  0  0  0  0  0  0  0  0
    6.1708   -0.2182    0.0000 C   0  0  0  0  0  0  0  0  0  0  0  0
    5.3587   -0.3634    0.0000 C   0  0  0  0  0  0  0  0  0  0  0  0
    4.8269    0.2673    0.0000 C   0  0  1  0  0  0  0  0  0  0  0  0
    5.1072    1.0432    0.0000 C   0  0  1  0  0  0  0  0  0  0  0  0
    5.9193    1.1884    0.0000 C   0  0  0  0  0  0  0  0  0  0  0  0
    4.5754    1.6739    0.0000 C   0  0  0  0  0  0  0  0  0  0  0  0
    3.7633    1.5287    0.0000 C   0  0  0  0  0  0  0  0  0  0  0  0
    3.4830    0.7528    0.0000 C   0  0  2  0  0  0  0  0  0  0  0  0
    4.0148    0.1221    0.0000 C   0  0  2  0  0  0  0  0  0  0  0  0
    3.7345   -0.6539    0.0000 C   0  0  0  0  0  0  0  0  0  0  0  0
    2.9224   -0.7991    0.0000 C   0  0  2  0  0  0  0  0  0  0  0  0
    2.3905   -0.1684    0.0000 C   0  0  1  0  0  0  0  0  0  0  0  0
    2.6708    0.6076    0.0000 C   0  0  2  0  0  0  0  0  0  0  0  0
    2.0195    1.1139    0.0000 C   0  0  0  0  0  0  0  0  0  0  0  0
    1.3367    0.6509    0.0000 C   0  0  0  0  0  0  0  0  0  0  0  0
    1.5660   -0.1416    0.0000 C   0  0  2  0  0  0  0  0  0  0  0  0
    1.0596   -0.7929    0.0000 C   0  0  0  0  0  0  0  0  0  0  0  0
    1.2889   -1.5854    0.0000 C   0  0  0  0  0  0  0  0  0  0  0  0
    0.6061   -2.0484    0.0000 C   0  0  0  0  0  0  0  0  0  0  0  0
    0.5793   -2.8729    0.0000 O   0  0  0  0  0  0  0  0  0  0  0  0
   -0.0452   -1.5420    0.0000 O   0  0  0  0  0  0  0  0  0  0  0  0
    0.2351   -0.7661    0.0000 C   0  0  0  0  0  0  0  0  0  0  0  0
    2.8685    1.4085    0.0000 O   0  0  0  0  0  0  0  0  0  0  0  0
    2.0307   -0.9107    0.0000 C   0  0  0  0  0  0  0  0  0  0  0  0
    2.6421   -1.5750    0.0000 O   0  0  0  0  0  0  0  0  0  0  0  0
    4.5466   -0.5086    0.0000 C   0  0  0  0  0  0  0  0  0  0  0  0
    9.4481    2.5452    0.0000 O   0  0  0  0  0  0  0  0  0  0  0  0
    8.3844    3.8066    0.0000 O   0  0  0  0  0  0  0  0  0  0  0  0
    9.1966    3.9518    0.0000 C   0  0  1  0  0  0  0  0  0  0  0  0
    9.4769    4.7278    0.0000 C   0  0  0  0  0  0  0  0  0  0  0  0
   10.2890    4.8730    0.0000 C   0  0  1  0  0  0  0  0  0  0  0  0
   10.8208    4.2423    0.0000 C   0  0  1  0  0  0  0  0  0  0  0  0
   10.5405    3.4663    0.0000 C   0  0  2  0  0  0  0  0  0  0  0  0
    9.7284    3.3211    0.0000 O   0  0  0  0  0  0  0  0  0  0  0  0
   11.0723    2.8356    0.0000 C   0  0  0  0  0  0  0  0  0  0  0  0
   11.6329    4.3875    0.0000 O   0  0  0  0  0  0  0  0  0  0  0  0
   11.9132    5.1634    0.0000 C   0  0  1  0  0  0  0  0  0  0  0  0
   11.3814    5.7941    0.0000 C   0  0  0  0  0  0  0  0  0  0  0  0
   11.6617    6.5700    0.0000 C   0  0  1  0  0  0  0  0  0  0  0  0
   12.4738    6.7153    0.0000 C   0  0  1  0  0  0  0  0  0  0  0  0
   13.0056    6.0845    0.0000 C   0  0  2  0  0  0  0  0  0  0  0  0
   12.7253    5.3086    0.0000 O   0  0  0  0  0  0  0  0  0  0  0  0
   13.8178    6.2298    0.0000 C   0  0  0  0  0  0  0  0  0  0  0  0
   12.7541    7.4912    0.0000 O   0  0  0  0  0  0  0  0  0  0  0  0
   12.2223    8.1219    0.0000 C   0  0  1  0  0  0  0  0  0  0  0  0
   12.5026    8.8978    0.0000 C   0  0  1  0  0  0  0  0  0  0  0  0
   11.9708    9.5285    0.0000 C   0  0  2  0  0  0  0  0  0  0  0  0
   11.1587    9.3833    0.0000 C   0  0  1  0  0  0  0  0  0  0  0  0
   10.8784    8.6074    0.0000 C   0  0  2  0  0  0  0  0  0  0  0  0
   11.4102    7.9767    0.0000 O   0  0  0  0  0  0  0  0  0  0  0  0
   10.0662    8.4622    0.0000 C   0  0  0  0  0  0  0  0  0  0  0  0
    9.5344    9.0929    0.0000 O   0  0  0  0  0  0  0  0  0  0  0  0
   10.6268   10.0140    0.0000 O   0  0  0  0  0  0  0  0  0  0  0  0
   12.2511   10.3044    0.0000 O   0  0  0  0  0  0  0  0  0  0  0  0
   13.3147    9.0430    0.0000 O   0  0  0  0  0  0  0  0  0  0  0  0
   11.1299    7.2007    0.0000 O   0  0  0  0  0  0  0  0  0  0  0  0
   10.3178    7.0555    0.0000 C   0  0  0  0  0  0  0  0  0  0  0  0
   10.0375    6.2796    0.0000 O   0  0  0  0  0  0  0  0  0  0  0  0
    9.7859    7.6862    0.0000 C   0  0  0  0  0  0  0  0  0  0  0  0
   10.5693    5.6489    0.0000 O   0  0  0  0  0  0  0  0  0  0  0  0
  2  1  1  6  0  0  0
  2  3  1  0  0  0  0
  2  7  1  0  0  0  0
  3  4  1  0  0  0  0
  3 37  1  1  0  0  0
  4  5  1  0  0  0  0
  4 36  1  1  0  0  0
  5  6  1  0  0  0  0
  6  7  1  0  0  0  0
  6  8  1  6  0  0  0
  9  8  1  1  0  0  0
  9 10  1  0  0  0  0
  9 14  1  0  0  0  0
 10 11  1  0  0  0  0
 11 12  1  0  0  0  0
 12 35  1  1  0  0  0
 13 12  1  6  0  0  0
 13 14  1  0  0  0  0
 13 15  1  0  0  0  0
 15 16  1  0  0  0  0
 17 16  1  0  0  0  0
 17 18  1  0  0  0  0
 17 22  1  6  0  0  0
 18 12  1  1  0  0  0
 18 19  1  0  0  0  0
 19 20  1  0  0  0  0
 20 21  1  1  0  0  0
 20 34  1  0  0  0  0
 21 22  1  1  0  0  0
 21 33  1  0  0  0  0
 22 23  1  0  0  0  0
 22 32  1  1  0  0  0
 23 24  1  0  0  0  0
 24 25  1  0  0  0  0
 25 21  1  1  0  0  0
 25 26  1  0  0  0  0
 26 27  2  0  0  0  0
 26 31  1  0  0  0  0
 27 28  1  0  0  0  0
 28 29  2  0  0  0  0
 28 30  1  0  0  0  0
 30 31  1  0  0  0  0
 38 37  1  1  0  0  0
 38 39  1  0  0  0  0
 38 43  1  0  0  0  0
 39 40  1  0  0  0  0
 40 41  1  0  0  0  0
 40 69  1  6  0  0  0
 41 42  1  0  0  0  0
 41 45  1  6  0  0  0
 42 43  1  0  0  0  0
 42 44  1  1  0  0  0
 46 45  1  1  0  0  0
 46 47  1  0  0  0  0
 46 51  1  0  0  0  0
 47 48  1  0  0  0  0
 48 49  1  0  0  0  0
 48 65  1  6  0  0  0
 49 50  1  0  0  0  0
 49 53  1  6  0  0  0
 50 51  1  0  0  0  0
 50 52  1  1  0  0  0
 54 53  1  6  0  0  0
 54 55  1  0  0  0  0
 54 59  1  0  0  0  0
 55 56  1  0  0  0  0
 55 64  1  1  0  0  0
 56 57  1  0  0  0  0
 56 63  1  6  0  0  0
 57 58  1  0  0  0  0
 57 62  1  1  0  0  0
 58 59  1  0  0  0  0
 58 60  1  6  0  0  0
 60 61  1  0  0  0  0
 65 66  1  0  0  0  0
 66 67  2  0  0  0  0
 66 68  1  0  0  0  0
M  END
>  <CdId>
3923

>  <Formula>
C49H76O20

>  <ID>
T1670

>  <Name>
Lanatoside C

>  <Synonyms>
Isolanid; Cedilanid; Ceglunate

>  <CAS>
17575-22-3

>  <MolWt>
985.12

>  <Pathways>
Membrane transporter/Ion channel

>  <Target>
ATPase inhibitor

>  <Receptor>
Na+/K+-ATPase

$$$$
