Loxistatin Acid
 OpenBabel02212023462D

 22 22  0  0  1  0  0  0  0  0999 V2000
    3.8230   -1.7309    0.0000 C   0  0  0  0  0  0  0  0  0  0  0  0
    4.5375   -1.3184    0.0000 C   0  0  0  0  0  0  0  0  0  0  0  0
    4.5375   -0.4934    0.0000 C   0  0  0  0  0  0  0  0  0  0  0  0
    5.2520   -1.7309    0.0000 C   0  0  0  0  0  0  0  0  0  0  0  0
    5.9664   -1.3184    0.0000 C   0  0  0  0  0  0  0  0  0  0  0  0
    6.6809   -1.7309    0.0000 N   0  0  0  0  0  0  0  0  0  0  0  0
    7.3954   -1.3184    0.0000 C   0  0  0  0  0  0  0  0  0  0  0  0
    7.3954   -0.4934    0.0000 O   0  0  0  0  0  0  0  0  0  0  0  0
    8.1099   -1.7309    0.0000 C   0  0  2  0  0  0  0  0  0  0  0  0
    8.1099   -2.5559    0.0000 C   0  0  0  0  0  0  0  0  0  0  0  0
    7.3954   -2.9684    0.0000 C   0  0  0  0  0  0  0  0  0  0  0  0
    7.3954   -3.7934    0.0000 C   0  0  0  0  0  0  0  0  0  0  0  0
    6.6809   -2.5559    0.0000 C   0  0  0  0  0  0  0  0  0  0  0  0
    8.8243   -1.3184    0.0000 N   0  0  0  0  0  0  0  0  0  0  0  0
    9.5388   -1.7309    0.0000 C   0  0  0  0  0  0  0  0  0  0  0  0
    9.5388   -2.5559    0.0000 O   0  0  0  0  0  0  0  0  0  0  0  0
   10.2533   -1.3184    0.0000 C   0  0  1  0  0  0  0  0  0  0  0  0
   10.6658   -0.6039    0.0000 O   0  0  0  0  0  0  0  0  0  0  0  0
   11.0783   -1.3184    0.0000 C   0  0  2  0  0  0  0  0  0  0  0  0
   11.7927   -1.7309    0.0000 C   0  0  0  0  0  0  0  0  0  0  0  0
   12.5072   -1.3184    0.0000 O   0  0  0  0  0  0  0  0  0  0  0  0
   11.7927   -2.5559    0.0000 O   0  0  0  0  0  0  0  0  0  0  0  0
  1  2  1  0  0  0  0
  2  3  1  0  0  0  0
  2  4  1  0  0  0  0
  4  5  1  0  0  0  0
  5  6  1  0  0  0  0
  6  7  1  0  0  0  0
  7  8  2  0  0  0  0
  7  9  1  0  0  0  0
  9 10  1  1  0  0  0
  9 14  1  0  0  0  0
 10 11  1  0  0  0  0
 11 12  1  0  0  0  0
 11 13  1  0  0  0  0
 14 15  1  0  0  0  0
 15 16  2  0  0  0  0
 17 15  1  1  0  0  0
 17 18  1  0  0  0  0
 17 19  1  0  0  0  0
 18 19  1  0  0  0  0
 19 20  1  6  0  0  0
 20 21  1  0  0  0  0
 20 22  2  0  0  0  0
M  END
>  <CdId>
450

>  <Formula>
C15H26N2O5

>  <ID>
T6573

>  <Name>
Loxistatin Acid

>  <Synonyms>
E 64c; NSC 694279; EP 475

>  <CAS>
76684-89-4

>  <MolWt>
314.38

>  <Pathways>
Proteases/Proteasome

>  <Target>
Cysteine Protease inhibitor

>  <Receptor>
Cysteine protease

$$$$
