Maleic acid
 OpenBabel02212023462D

  8  7  0  0  0  0  0  0  0  0999 V2000
    2.0625   -0.7145    0.0000 O   0  0  0  0  0  0  0  0  0  0  0  0
    1.2375   -0.7145    0.0000 C   0  0  0  0  0  0  0  0  0  0  0  0
    0.8250   -1.4289    0.0000 O   0  0  0  0  0  0  0  0  0  0  0  0
    0.8250    0.0000    0.0000 C   0  0  0  0  0  0  0  0  0  0  0  0
    0.0000    0.0000    0.0000 C   0  0  0  0  0  0  0  0  0  0  0  0
   -0.4125   -0.7145    0.0000 C   0  0  0  0  0  0  0  0  0  0  0  0
    0.0000   -1.4289    0.0000 O   0  0  0  0  0  0  0  0  0  0  0  0
   -1.2375   -0.7145    0.0000 O   0  0  0  0  0  0  0  0  0  0  0  0
  1  2  1  0  0  0  0
  2  3  2  0  0  0  0
  2  4  1  0  0  0  0
  4  5  2  0  0  0  0
  5  6  1  0  0  0  0
  6  7  1  0  0  0  0
  6  8  2  0  0  0  0
M  END
>  <CdId>
1240

>  <Formula>
C4H4O4

>  <ID>
T4913

>  <Name>
Maleic acid

>  <CAS>
110-16-7

>  <MolWt>
116.07

>  <Pathways>
Microbiology&virology

>  <Target>
Antibacterial

>  <Receptor>
Glutamate Decarboxylase

$$$$
