Meglumine
 OpenBabel02212023462D

 13 12  0  0  1  0  0  0  0  0999 V2000
    3.7125   -2.1434    0.0000 N   0  0  0  0  0  0  0  0  0  0  0  0
    4.4270   -2.5559    0.0000 C   0  0  0  0  0  0  0  0  0  0  0  0
    5.1414   -2.1434    0.0000 C   0  0  2  0  0  0  0  0  0  0  0  0
    5.1414   -1.3184    0.0000 O   0  0  0  0  0  0  0  0  0  0  0  0
    5.8559   -2.5559    0.0000 C   0  0  1  0  0  0  0  0  0  0  0  0
    5.8559   -3.3809    0.0000 O   0  0  0  0  0  0  0  0  0  0  0  0
    6.5704   -2.1434    0.0000 C   0  0  2  0  0  0  0  0  0  0  0  0
    6.5704   -1.3184    0.0000 O   0  0  0  0  0  0  0  0  0  0  0  0
    7.2849   -2.5559    0.0000 C   0  0  2  0  0  0  0  0  0  0  0  0
    7.2849   -3.3809    0.0000 O   0  0  0  0  0  0  0  0  0  0  0  0
    7.9993   -2.1434    0.0000 C   0  0  0  0  0  0  0  0  0  0  0  0
    8.7138   -2.5559    0.0000 O   0  0  0  0  0  0  0  0  0  0  0  0
    2.9980   -2.5559    0.0000 C   0  0  0  0  0  0  0  0  0  0  0  0
  1  2  1  0  0  0  0
  1 13  1  0  0  0  0
  2  3  1  0  0  0  0
  3  4  1  6  0  0  0
  3  5  1  0  0  0  0
  5  6  1  6  0  0  0
  5  7  1  0  0  0  0
  7  8  1  6  0  0  0
  7  9  1  0  0  0  0
  9 10  1  1  0  0  0
  9 11  1  0  0  0  0
 11 12  1  0  0  0  0
M  END
>  <CdId>
362

>  <Mol Weight>
195.2136

>  <Formula>
C7H17NO5

>  <ID>
T0503

>  <Name>
Meglumine

>  <Synonyms>
Meglumin;Methylglucamin;Methylglucamine

>  <CAS>
6284-40-8

>  <Approved status>
FDA

>  <Disease>
Others

>  <Indication>
Vet Drug

>  <Pathways>
Others

>  <Target>
Others

>  <Receptor>
Others

$$$$
