Milnacipran hydrochloride
 OpenBabel02212023462D

 19 19  0  0  1  0  0  0  0  0999 V2000
    0.0000    0.0000    0.0000 Cl  0  0  0  0  0  0  0  0  0  0  0  0
    5.2419   -1.1869    0.0000 C   0  0  0  0  0  0  0  0  0  0  0  0
    4.4169   -1.1869    0.0000 C   0  0  1  0  0  0  0  0  0  0  0  0
    4.8294   -0.4724    0.0000 C   0  0  2  0  0  0  0  0  0  0  0  0
    4.3562    0.2034    0.0000 C   0  0  0  0  0  0  0  0  0  0  0  0
    4.4567    1.0222    0.0000 O   0  0  0  0  0  0  0  0  0  0  0  0
    3.5343    0.1315    0.0000 N   0  0  0  0  0  0  0  0  0  0  0  0
    3.0611    0.8073    0.0000 C   0  0  0  0  0  0  0  0  0  0  0  0
    2.2393    0.7353    0.0000 C   0  0  0  0  0  0  0  0  0  0  0  0
    3.1857   -0.6163    0.0000 C   0  0  0  0  0  0  0  0  0  0  0  0
    2.3638   -0.6882    0.0000 C   0  0  0  0  0  0  0  0  0  0  0  0
    5.3026    0.2034    0.0000 C   0  0  0  0  0  0  0  0  0  0  0  0
    4.9539    0.9511    0.0000 C   0  0  0  0  0  0  0  0  0  0  0  0
    5.4271    1.6269    0.0000 C   0  0  0  0  0  0  0  0  0  0  0  0
    6.2490    1.5550    0.0000 C   0  0  0  0  0  0  0  0  0  0  0  0
    6.5977    0.8073    0.0000 C   0  0  0  0  0  0  0  0  0  0  0  0
    6.1245    0.1315    0.0000 C   0  0  0  0  0  0  0  0  0  0  0  0
    3.7024   -1.5994    0.0000 C   0  0  0  0  0  0  0  0  0  0  0  0
    3.7024   -2.4244    0.0000 N   0  0  0  0  0  0  0  0  0  0  0  0
  2  3  1  0  0  0  0
  2  4  1  0  0  0  0
  3  4  1  6  0  0  0
  3 18  1  0  0  0  0
  4  5  1  6  0  0  0
  4 12  1  0  0  0  0
  5  6  2  0  0  0  0
  5  7  1  0  0  0  0
  7  8  1  0  0  0  0
  7 10  1  0  0  0  0
  8  9  1  0  0  0  0
 10 11  1  0  0  0  0
 12 13  2  0  0  0  0
 12 17  1  0  0  0  0
 13 14  1  0  0  0  0
 14 15  2  0  0  0  0
 15 16  1  0  0  0  0
 16 17  2  0  0  0  0
 18 19  1  0  0  0  0
M  END
>  <CdId>
692

>  <Mol Weight>
282.809

>  <Formula>
C15H23ClN2O

>  <ID>
T1189

>  <Name>
Milnacipran hydrochloride

>  <Synonyms>
Savella;Dalcipran

>  <CAS>
101152-94-7

>  <Approved status>
FDA

>  <Disease>
Nervous system

>  <Indication>
Fibromyalgia; Major Depressive Disorder

>  <Pathways>
Neuroscience

>  <Target>
Norepinephrine inhibitor

>  <Receptor>
norepinephrine transporter (NET); norepinephrine transporter (SERT)

$$$$
