MK-2206 dihydrochloride
 OpenBabel02212023462D

 33 36  0  0  0  0  0  0  0  0999 V2000
    0.0000    0.0000    0.0000 Cl  0  0  0  0  0  0  0  0  0  0  0  0
    2.2393    0.0000    0.0000 Cl  0  0  0  0  0  0  0  0  0  0  0  0
   -3.2220   -2.0991    0.0000 N   0  0  0  0  0  0  0  0  0  0  0  0
   -3.2478   -2.9237    0.0000 C   0  0  0  0  0  0  0  0  0  0  0  0
   -3.2735   -3.7483    0.0000 C   0  0  0  0  0  0  0  0  0  0  0  0
   -4.0981   -3.7225    0.0000 C   0  0  0  0  0  0  0  0  0  0  0  0
   -4.0724   -2.8979    0.0000 C   0  0  0  0  0  0  0  0  0  0  0  0
   -2.4232   -2.9494    0.0000 C   0  0  0  0  0  0  0  0  0  0  0  0
   -1.9886   -2.2482    0.0000 C   0  0  0  0  0  0  0  0  0  0  0  0
   -1.1640   -2.2740    0.0000 C   0  0  0  0  0  0  0  0  0  0  0  0
   -0.7740   -3.0010    0.0000 C   0  0  0  0  0  0  0  0  0  0  0  0
   -1.2086   -3.7022    0.0000 C   0  0  0  0  0  0  0  0  0  0  0  0
   -2.0332   -3.6764    0.0000 C   0  0  0  0  0  0  0  0  0  0  0  0
    0.0506   -3.0267    0.0000 C   0  0  3  0  0  0  0  0  0  0  0  0
    0.4852   -2.3255    0.0000 N   0  0  0  0  0  0  0  0  0  0  0  0
    1.3098   -2.3512    0.0000 C   0  0  3  0  0  0  0  0  0  0  0  0
    1.7444   -1.6500    0.0000 C   0  0  0  0  0  0  0  0  0  0  0  0
    2.5690   -1.6758    0.0000 C   0  0  0  0  0  0  0  0  0  0  0  0
    2.9590   -2.4028    0.0000 N   0  0  0  0  0  0  0  0  0  0  0  0
    2.5244   -3.1040    0.0000 C   0  0  3  0  0  0  0  0  0  0  0  0
    3.0570   -3.7340    0.0000 N   0  0  0  0  0  0  0  0  0  0  0  0
    3.8208   -3.4222    0.0000 N   0  0  0  0  0  0  0  0  0  0  0  0
    3.7603   -2.5994    0.0000 C   0  0  0  0  0  0  0  0  0  0  0  0
    4.3903   -2.0668    0.0000 O   0  0  0  0  0  0  0  0  0  0  0  0
    1.6998   -3.0782    0.0000 C   0  0  3  0  0  0  0  0  0  0  0  0
    1.2652   -3.7795    0.0000 C   0  0  0  0  0  0  0  0  0  0  0  0
    0.4406   -3.7537    0.0000 C   0  0  3  0  0  0  0  0  0  0  0  0
    0.0060   -4.4550    0.0000 C   0  0  0  0  0  0  0  0  0  0  0  0
    0.3960   -5.1820    0.0000 C   0  0  0  0  0  0  0  0  0  0  0  0
   -0.0386   -5.8832    0.0000 C   0  0  0  0  0  0  0  0  0  0  0  0
   -0.8632   -5.8574    0.0000 C   0  0  0  0  0  0  0  0  0  0  0  0
   -1.2532   -5.1304    0.0000 C   0  0  0  0  0  0  0  0  0  0  0  0
   -0.8186   -4.4292    0.0000 C   0  0  0  0  0  0  0  0  0  0  0  0
  3  4  1  0  0  0  0
  4  5  1  0  0  0  0
  4  7  1  0  0  0  0
  4  8  1  0  0  0  0
  5  6  1  0  0  0  0
  6  7  1  0  0  0  0
  8  9  2  0  0  0  0
  8 13  1  0  0  0  0
  9 10  1  0  0  0  0
 10 11  2  0  0  0  0
 11 12  1  0  0  0  0
 11 14  1  0  0  0  0
 12 13  2  0  0  0  0
 14 15  1  0  0  0  0
 14 27  1  0  0  0  0
 15 16  1  0  0  0  0
 16 17  1  0  0  0  0
 16 25  1  0  0  0  0
 17 18  1  0  0  0  0
 18 19  1  0  0  0  0
 19 20  1  0  0  0  0
 19 23  1  0  0  0  0
 20 21  1  0  0  0  0
 20 25  1  0  0  0  0
 21 22  1  0  0  0  0
 22 23  1  0  0  0  0
 23 24  2  0  0  0  0
 25 26  1  0  0  0  0
 26 27  1  0  0  0  0
 27 28  1  0  0  0  0
 28 29  2  0  0  0  0
 28 33  1  0  0  0  0
 29 30  1  0  0  0  0
 30 31  2  0  0  0  0
 31 32  1  0  0  0  0
 32 33  2  0  0  0  0
M  END
>  <CdId>
3677

>  <Formula>
C25H23Cl2N5O

>  <ID>
T1952

>  <Name>
MK-2206 dihydrochloride

>  <Synonyms>
MK-2206 2HCl

>  <CAS>
1032350-13-2

>  <MolWt>
480.39

>  <Pathways>
Cytoskeletal Signaling; PI3K/Akt/mTOR signaling

>  <Target>
Akt

>  <Receptor>
Akt1; Akt2; Akt3

$$$$
