ML327
 OpenBabel02212023462D

 27 29  0  0  0  0  0  0  0  0999 V2000
   -0.1830   -3.9995    0.0000 O   0  0  0  0  0  0  0  0  0  0  0  0
   -0.1830   -3.1745    0.0000 C   0  0  0  0  0  0  0  0  0  0  0  0
    0.5315   -2.7620    0.0000 N   0  0  0  0  0  0  0  0  0  0  0  0
    1.2460   -3.1745    0.0000 C   0  0  0  0  0  0  0  0  0  0  0  0
    1.9605   -2.7620    0.0000 C   0  0  0  0  0  0  0  0  0  0  0  0
    2.6749   -3.1745    0.0000 C   0  0  0  0  0  0  0  0  0  0  0  0
    3.3894   -2.7620    0.0000 N   0  0  0  0  0  0  0  0  0  0  0  0
    4.1039   -3.1745    0.0000 C   0  0  0  0  0  0  0  0  0  0  0  0
    4.1039   -3.9995    0.0000 O   0  0  0  0  0  0  0  0  0  0  0  0
    4.8183   -2.7620    0.0000 C   0  0  0  0  0  0  0  0  0  0  0  0
    4.8183   -1.9370    0.0000 C   0  0  0  0  0  0  0  0  0  0  0  0
    5.5328   -1.5245    0.0000 C   0  0  0  0  0  0  0  0  0  0  0  0
    6.2473   -1.9370    0.0000 C   0  0  0  0  0  0  0  0  0  0  0  0
    6.2473   -2.7620    0.0000 N   0  0  0  0  0  0  0  0  0  0  0  0
    5.5328   -3.1745    0.0000 C   0  0  0  0  0  0  0  0  0  0  0  0
    5.5328   -3.9995    0.0000 O   0  0  0  0  0  0  0  0  0  0  0  0
   -0.8974   -2.7620    0.0000 C   0  0  0  0  0  0  0  0  0  0  0  0
   -1.6511   -3.0975    0.0000 C   0  0  0  0  0  0  0  0  0  0  0  0
   -2.2031   -2.4844    0.0000 C   0  0  0  0  0  0  0  0  0  0  0  0
   -1.7906   -1.7700    0.0000 O   0  0  0  0  0  0  0  0  0  0  0  0
   -0.9837   -1.9415    0.0000 N   0  0  0  0  0  0  0  0  0  0  0  0
   -3.0236   -2.5707    0.0000 C   0  0  0  0  0  0  0  0  0  0  0  0
   -3.3592   -3.3244    0.0000 C   0  0  0  0  0  0  0  0  0  0  0  0
   -4.1796   -3.4106    0.0000 C   0  0  0  0  0  0  0  0  0  0  0  0
   -4.6646   -2.7432    0.0000 C   0  0  0  0  0  0  0  0  0  0  0  0
   -4.3290   -1.9895    0.0000 C   0  0  0  0  0  0  0  0  0  0  0  0
   -3.5085   -1.9032    0.0000 C   0  0  0  0  0  0  0  0  0  0  0  0
  1  2  2  0  0  0  0
  2  3  1  0  0  0  0
  2 17  1  0  0  0  0
  3  4  1  0  0  0  0
  4  5  1  0  0  0  0
  5  6  1  0  0  0  0
  6  7  1  0  0  0  0
  7  8  1  0  0  0  0
  8  9  2  0  0  0  0
  8 10  1  0  0  0  0
 10 11  2  0  0  0  0
 10 15  1  0  0  0  0
 11 12  1  0  0  0  0
 12 13  2  0  0  0  0
 13 14  1  0  0  0  0
 14 15  1  0  0  0  0
 15 16  2  0  0  0  0
 17 18  1  0  0  0  0
 17 21  2  0  0  0  0
 18 19  2  0  0  0  0
 19 20  1  0  0  0  0
 19 22  1  0  0  0  0
 20 21  1  0  0  0  0
 22 23  2  0  0  0  0
 22 27  1  0  0  0  0
 23 24  1  0  0  0  0
 24 25  2  0  0  0  0
 25 26  1  0  0  0  0
 26 27  2  0  0  0  0
M  END
>  <CdId>
1698

>  <Formula>
C19H18N4O4

>  <ID>
T4252

>  <Name>
ML327

>  <CAS>
1883510-31-3

>  <MolWt>
366.38

>  <Pathways>
Cell Cycle/Checkpoint

>  <Target>
c-Myc

>  <Receptor>
MYC

$$$$
