MonoMethyl auristatin F
 OpenBabel02212023462D

 52 53  0  0  1  0  0  0  0  0999 V2000
    7.5841   -3.2897    0.0000 C   0  0  0  0  0  0  0  0  0  0  0  0
    7.4282   -4.0998    0.0000 C   0  0  0  0  0  0  0  0  0  0  0  0
    6.6486   -4.3698    0.0000 C   0  0  2  0  0  0  0  0  0  0  0  0
    6.0250   -3.8298    0.0000 C   0  0  0  0  0  0  0  0  0  0  0  0
    6.4927   -5.1800    0.0000 C   0  0  1  0  0  0  0  0  0  0  0  0
    5.7131   -5.4500    0.0000 C   0  0  1  0  0  0  0  0  0  0  0  0
    5.0895   -4.9099    0.0000 C   0  0  0  0  0  0  0  0  0  0  0  0
    4.3099   -5.1800    0.0000 C   0  0  0  0  0  0  0  0  0  0  0  0
    4.1540   -5.9901    0.0000 O   0  0  0  0  0  0  0  0  0  0  0  0
    3.6863   -4.6399    0.0000 N   0  0  0  0  0  0  0  0  0  0  0  0
    2.8828   -4.8270    0.0000 C   0  0  0  0  0  0  0  0  0  0  0  0
    2.4566   -4.1206    0.0000 C   0  0  0  0  0  0  0  0  0  0  0  0
    2.9967   -3.4970    0.0000 C   0  0  0  0  0  0  0  0  0  0  0  0
    3.7567   -3.8179    0.0000 C   0  0  3  0  0  0  0  0  0  0  0  0
    4.4630   -3.3917    0.0000 C   0  0  2  0  0  0  0  0  0  0  0  0
    5.1854   -3.7903    0.0000 O   0  0  0  0  0  0  0  0  0  0  0  0
    5.8917   -3.3641    0.0000 C   0  0  0  0  0  0  0  0  0  0  0  0
    4.4471   -2.5668    0.0000 C   0  0  1  0  0  0  0  0  0  0  0  0
    3.7248   -2.1682    0.0000 C   0  0  0  0  0  0  0  0  0  0  0  0
    5.1535   -2.1406    0.0000 C   0  0  0  0  0  0  0  0  0  0  0  0
    5.8758   -2.5392    0.0000 O   0  0  0  0  0  0  0  0  0  0  0  0
    5.1376   -1.3158    0.0000 N   0  0  0  0  0  0  0  0  0  0  0  0
    5.8439   -0.8895    0.0000 C   0  0  1  0  0  0  0  0  0  0  0  0
    5.8280   -0.0647    0.0000 C   0  0  0  0  0  0  0  0  0  0  0  0
    6.5344    0.3615    0.0000 C   0  0  0  0  0  0  0  0  0  0  0  0
    6.5184    1.1864    0.0000 C   0  0  0  0  0  0  0  0  0  0  0  0
    7.2248    1.6126    0.0000 C   0  0  0  0  0  0  0  0  0  0  0  0
    7.9471    1.2140    0.0000 C   0  0  0  0  0  0  0  0  0  0  0  0
    7.9630    0.3891    0.0000 C   0  0  0  0  0  0  0  0  0  0  0  0
    7.2567   -0.0371    0.0000 C   0  0  0  0  0  0  0  0  0  0  0  0
    6.5662   -1.2882    0.0000 C   0  0  0  0  0  0  0  0  0  0  0  0
    7.2726   -0.8619    0.0000 O   0  0  0  0  0  0  0  0  0  0  0  0
    6.5822   -2.1130    0.0000 O   0  0  0  0  0  0  0  0  0  0  0  0
    5.5572   -6.2602    0.0000 O   0  0  0  0  0  0  0  0  0  0  0  0
    4.7777   -6.5302    0.0000 C   0  0  0  0  0  0  0  0  0  0  0  0
    7.1163   -5.7201    0.0000 N   0  0  0  0  0  0  0  0  0  0  0  0
    6.9604   -6.5302    0.0000 C   0  0  0  0  0  0  0  0  0  0  0  0
    7.8959   -5.4500    0.0000 C   0  0  0  0  0  0  0  0  0  0  0  0
    8.0518   -4.6399    0.0000 O   0  0  0  0  0  0  0  0  0  0  0  0
    8.5195   -5.9901    0.0000 C   0  0  1  0  0  0  0  0  0  0  0  0
    9.2991   -5.7201    0.0000 N   0  0  0  0  0  0  0  0  0  0  0  0
    9.9227   -6.2602    0.0000 C   0  0  0  0  0  0  0  0  0  0  0  0
    9.7668   -7.0703    0.0000 O   0  0  0  0  0  0  0  0  0  0  0  0
   10.7023   -5.9901    0.0000 C   0  0  1  0  0  0  0  0  0  0  0  0
   11.3259   -6.5302    0.0000 N   0  0  0  0  0  0  0  0  0  0  0  0
   12.1055   -6.2602    0.0000 C   0  0  0  0  0  0  0  0  0  0  0  0
   10.8582   -5.1800    0.0000 C   0  0  0  0  0  0  0  0  0  0  0  0
   10.2345   -4.6399    0.0000 C   0  0  0  0  0  0  0  0  0  0  0  0
   11.6377   -4.9099    0.0000 C   0  0  0  0  0  0  0  0  0  0  0  0
    8.3636   -6.8003    0.0000 C   0  0  0  0  0  0  0  0  0  0  0  0
    8.9873   -7.3403    0.0000 C   0  0  0  0  0  0  0  0  0  0  0  0
    7.5841   -7.0703    0.0000 C   0  0  0  0  0  0  0  0  0  0  0  0
  1  2  1  0  0  0  0
  2  3  1  0  0  0  0
  3  4  1  1  0  0  0
  3  5  1  0  0  0  0
  5  6  1  0  0  0  0
  5 36  1  6  0  0  0
  6  7  1  6  0  0  0
  6 34  1  0  0  0  0
  7  8  1  0  0  0  0
  8  9  2  0  0  0  0
  8 10  1  0  0  0  0
 10 11  1  0  0  0  0
 10 14  1  0  0  0  0
 11 12  1  0  0  0  0
 12 13  1  0  0  0  0
 13 14  1  0  0  0  0
 14 15  1  0  0  0  0
 15 16  1  1  0  0  0
 15 18  1  0  0  0  0
 16 17  1  0  0  0  0
 18 19  1  1  0  0  0
 18 20  1  0  0  0  0
 20 21  2  0  0  0  0
 20 22  1  0  0  0  0
 23 22  1  0  0  0  0
 23 24  1  1  0  0  0
 23 31  1  0  0  0  0
 24 25  1  0  0  0  0
 25 26  2  0  0  0  0
 25 30  1  0  0  0  0
 26 27  1  0  0  0  0
 27 28  2  0  0  0  0
 28 29  1  0  0  0  0
 29 30  2  0  0  0  0
 31 32  1  0  0  0  0
 31 33  2  0  0  0  0
 34 35  1  0  0  0  0
 36 37  1  0  0  0  0
 36 38  1  0  0  0  0
 38 39  2  0  0  0  0
 40 38  1  1  0  0  0
 40 41  1  0  0  0  0
 40 50  1  0  0  0  0
 41 42  1  0  0  0  0
 42 43  2  0  0  0  0
 44 42  1  6  0  0  0
 44 45  1  0  0  0  0
 44 47  1  0  0  0  0
 45 46  1  0  0  0  0
 47 48  1  0  0  0  0
 47 49  1  0  0  0  0
 50 51  1  0  0  0  0
 50 52  1  0  0  0  0
M  END
>  <CdId>
2510

>  <Formula>
C39H65N5O8

>  <ID>
T3256

>  <Name>
MonoMethyl auristatin F

>  <Synonyms>
MMAF

>  <CAS>
745017-94-1

>  <MolWt>
731.98

>  <Pathways>
Others

>  <Target>
Others inhibitor

>  <Receptor>
Cytotoxicity( Karpas 299 cell)

$$$$
