Mucic Acid
 OpenBabel02212023462D

 14 13  0  0  1  0  0  0  0  0999 V2000
    3.9039    1.4289    0.0000 C   0  0  2  0  0  0  0  0  0  0  0  0
    3.1895    1.8414    0.0000 C   0  0  1  0  0  0  0  0  0  0  0  0
    2.4750    1.4289    0.0000 C   0  0  2  0  0  0  0  0  0  0  0  0
    1.7605    1.8414    0.0000 C   0  0  0  0  0  0  0  0  0  0  0  0
    1.0461    1.4289    0.0000 O   0  0  0  0  0  0  0  0  0  0  0  0
    1.7605    2.6664    0.0000 O   0  0  0  0  0  0  0  0  0  0  0  0
    2.4750    0.6039    0.0000 O   0  0  0  0  0  0  0  0  0  0  0  0
    3.1895    2.6664    0.0000 O   0  0  0  0  0  0  0  0  0  0  0  0
    4.6184    1.8414    0.0000 C   0  0  1  0  0  0  0  0  0  0  0  0
    5.3329    1.4289    0.0000 C   0  0  0  0  0  0  0  0  0  0  0  0
    6.0474    1.8414    0.0000 O   0  0  0  0  0  0  0  0  0  0  0  0
    5.3329    0.6039    0.0000 O   0  0  0  0  0  0  0  0  0  0  0  0
    4.6184    2.6664    0.0000 O   0  0  0  0  0  0  0  0  0  0  0  0
    3.9039    0.6039    0.0000 O   0  0  0  0  0  0  0  0  0  0  0  0
  1  2  1  0  0  0  0
  1  9  1  0  0  0  0
  1 14  1  6  0  0  0
  2  3  1  0  0  0  0
  2  8  1  1  0  0  0
  3  4  1  0  0  0  0
  3  7  1  1  0  0  0
  4  5  2  0  0  0  0
  4  6  1  0  0  0  0
  9 10  1  0  0  0  0
  9 13  1  6  0  0  0
 10 11  2  0  0  0  0
 10 12  1  0  0  0  0
M  END
>  <CdId>
1069

>  <Formula>
C6H10O8

>  <ID>
T2877

>  <Name>
Mucic Acid

>  <Synonyms>
Galactaric acid;Saccharolactic acid

>  <CAS>
526-99-8

>  <Source>
Animal

>  <category>
Others

>  <MolWt>
210.14

>  <Pathways>
Others

>  <Target>
Others

>  <Receptor>
Others

$$$$
