N-Acetyl-L-alanine
 OpenBabel02212023462D

  9  8  0  0  1  0  0  0  0  0999 V2000
    1.9520    1.9520    0.0000 C   0  0  0  0  0  0  0  0  0  0  0  0
    1.9520    1.1270    0.0000 C   0  0  2  0  0  0  0  0  0  0  0  0
    1.2375    0.7145    0.0000 N   0  0  0  0  0  0  0  0  0  0  0  0
    0.5230    1.1270    0.0000 C   0  0  0  0  0  0  0  0  0  0  0  0
   -0.1914    0.7145    0.0000 C   0  0  0  0  0  0  0  0  0  0  0  0
    0.5230    1.9520    0.0000 O   0  0  0  0  0  0  0  0  0  0  0  0
    2.6664    0.7145    0.0000 C   0  0  0  0  0  0  0  0  0  0  0  0
    3.3809    1.1270    0.0000 O   0  0  0  0  0  0  0  0  0  0  0  0
    2.6664   -0.1105    0.0000 O   0  0  0  0  0  0  0  0  0  0  0  0
  2  1  1  1  0  0  0
  2  3  1  0  0  0  0
  2  7  1  0  0  0  0
  3  4  1  0  0  0  0
  4  5  1  0  0  0  0
  4  6  2  0  0  0  0
  7  8  1  0  0  0  0
  7  9  2  0  0  0  0
M  END
>  <CdId>
374

>  <Formula>
C5H9NO3

>  <ID>
T4839

>  <Name>
N-Acetyl-L-alanine

>  <CAS>
97-69-8

>  <Source>
Animal

>  <category>
Others

>  <MolWt>
131.13

>  <Pathways>
Metabolic Enzyme/Protease

>  <Target>
Endogenous Metabolite

>  <Receptor>
others

$$$$
