Oprozomib
 OpenBabel02212023462D

 37 39  0  0  1  0  0  0  0  0999 V2000
    6.7630   -4.0742    0.0000 S   0  0  0  0  0  0  0  0  0  0  0  0
    7.0839   -4.8342    0.0000 C   0  0  0  0  0  0  0  0  0  0  0  0
    6.4603   -5.3743    0.0000 N   0  0  0  0  0  0  0  0  0  0  0  0
    5.7539   -4.9481    0.0000 C   0  0  0  0  0  0  0  0  0  0  0  0
    5.9410   -4.1446    0.0000 C   0  0  0  0  0  0  0  0  0  0  0  0
    5.4009   -3.5209    0.0000 C   0  0  0  0  0  0  0  0  0  0  0  0
    5.6709   -2.7414    0.0000 O   0  0  0  0  0  0  0  0  0  0  0  0
    4.5908   -3.6768    0.0000 N   0  0  0  0  0  0  0  0  0  0  0  0
    4.0507   -3.0532    0.0000 C   0  0  2  0  0  0  0  0  0  0  0  0
    3.2405   -3.2091    0.0000 C   0  0  0  0  0  0  0  0  0  0  0  0
    2.9705   -3.9887    0.0000 O   0  0  0  0  0  0  0  0  0  0  0  0
    2.7004   -2.5855    0.0000 N   0  0  0  0  0  0  0  0  0  0  0  0
    1.8903   -2.7414    0.0000 C   0  0  2  0  0  0  0  0  0  0  0  0
    1.3502   -2.1177    0.0000 C   0  0  0  0  0  0  0  0  0  0  0  0
    1.6203   -1.3382    0.0000 O   0  0  0  0  0  0  0  0  0  0  0  0
    0.5401   -2.2736    0.0000 N   0  0  0  0  0  0  0  0  0  0  0  0
    0.0000   -1.6500    0.0000 C   0  0  2  0  0  0  0  0  0  0  0  0
    0.2700   -0.8704    0.0000 C   0  0  0  0  0  0  0  0  0  0  0  0
    1.0802   -0.7145    0.0000 O   0  0  0  0  0  0  0  0  0  0  0  0
   -0.2700   -0.2468    0.0000 C   0  0  2  0  0  0  0  0  0  0  0  0
   -0.5643    0.5239    0.0000 O   0  0  0  0  0  0  0  0  0  0  0  0
    0.2503    0.3934    0.0000 C   0  0  0  0  0  0  0  0  0  0  0  0
   -0.9780   -0.6704    0.0000 C   0  0  0  0  0  0  0  0  0  0  0  0
   -0.8101   -1.8059    0.0000 C   0  0  0  0  0  0  0  0  0  0  0  0
   -1.0802   -2.5855    0.0000 C   0  0  0  0  0  0  0  0  0  0  0  0
   -0.5401   -3.2091    0.0000 C   0  0  0  0  0  0  0  0  0  0  0  0
   -0.8101   -3.9887    0.0000 C   0  0  0  0  0  0  0  0  0  0  0  0
   -1.6203   -4.1446    0.0000 C   0  0  0  0  0  0  0  0  0  0  0  0
   -2.1604   -3.5209    0.0000 C   0  0  0  0  0  0  0  0  0  0  0  0
   -1.8903   -2.7414    0.0000 C   0  0  0  0  0  0  0  0  0  0  0  0
    1.6203   -3.5209    0.0000 C   0  0  0  0  0  0  0  0  0  0  0  0
    0.8101   -3.6768    0.0000 O   0  0  0  0  0  0  0  0  0  0  0  0
    0.2700   -3.0532    0.0000 C   0  0  0  0  0  0  0  0  0  0  0  0
    4.3207   -2.2736    0.0000 C   0  0  0  0  0  0  0  0  0  0  0  0
    3.7806   -1.6500    0.0000 O   0  0  0  0  0  0  0  0  0  0  0  0
    2.9705   -1.8059    0.0000 C   0  0  0  0  0  0  0  0  0  0  0  0
    7.8874   -5.0213    0.0000 C   0  0  0  0  0  0  0  0  0  0  0  0
  1  2  1  0  0  0  0
  1  5  1  0  0  0  0
  2  3  2  0  0  0  0
  2 37  1  0  0  0  0
  3  4  1  0  0  0  0
  4  5  2  0  0  0  0
  5  6  1  0  0  0  0
  6  7  2  0  0  0  0
  6  8  1  0  0  0  0
  9  8  1  0  0  0  0
  9 10  1  0  0  0  0
  9 34  1  6  0  0  0
 10 11  2  0  0  0  0
 10 12  1  0  0  0  0
 13 12  1  0  0  0  0
 13 14  1  0  0  0  0
 13 31  1  1  0  0  0
 14 15  2  0  0  0  0
 14 16  1  0  0  0  0
 17 16  1  0  0  0  0
 17 18  1  0  0  0  0
 17 24  1  1  0  0  0
 18 19  2  0  0  0  0
 20 18  1  0  0  0  0
 20 21  1  0  0  0  0
 20 22  1  0  0  0  0
 20 23  1  1  0  0  0
 21 22  1  0  0  0  0
 24 25  1  0  0  0  0
 25 26  2  0  0  0  0
 25 30  1  0  0  0  0
 26 27  1  0  0  0  0
 27 28  2  0  0  0  0
 28 29  1  0  0  0  0
 29 30  2  0  0  0  0
 31 32  1  0  0  0  0
 32 33  1  0  0  0  0
 34 35  1  0  0  0  0
 35 36  1  0  0  0  0
M  END
>  <CdId>
808

>  <Formula>
C25H32N4O7S

>  <ID>
T6041

>  <Name>
Oprozomib

>  <Synonyms>
PR-047; ONX 0912

>  <CAS>
935888-69-0

>  <MolWt>
532.61

>  <Pathways>
Proteases/Proteasome; Ubiquitination

>  <Target>
Proteasome inhibitor

>  <Receptor>
20S proteasome; 20S proteasome

$$$$
