Oxaliplatin
 OpenBabel02212023462D

 15 13  0  0  0  0  0  0  0  0999 V2000
    0.1786    1.3406    0.0000 N   0  0  0  0  0  0  0  0  0  0  0  0
    0.1786    0.5156    0.0000 C   0  0  3  0  0  0  0  0  0  0  0  0
    0.8931    0.1031    0.0000 C   0  0  0  0  0  0  0  0  0  0  0  0
    0.8931   -0.7219    0.0000 C   0  0  0  0  0  0  0  0  0  0  0  0
    0.1786   -1.1344    0.0000 C   0  0  0  0  0  0  0  0  0  0  0  0
   -0.5359   -0.7219    0.0000 C   0  0  0  0  0  0  0  0  0  0  0  0
   -0.5359    0.1031    0.0000 C   0  0  3  0  0  0  0  0  0  0  0  0
   -1.2503    0.5156    0.0000 N   0  0  0  0  0  0  0  0  0  0  0  0
    3.2502    0.0000    0.0000 Pt  0  2  0  0  0 15  0  0  0  0  0  0
   -0.2063   -2.7844    0.0000 O   0  5  0  0  0  0  0  0  0  0  0  0
    0.2062   -3.4988    0.0000 C   0  0  0  0  0  0  0  0  0  0  0  0
    1.0312   -3.4988    0.0000 O   0  0  0  0  0  0  0  0  0  0  0  0
   -0.2062   -4.2133    0.0000 C   0  0  0  0  0  0  0  0  0  0  0  0
    0.2063   -4.9278    0.0000 O   0  0  0  0  0  0  0  0  0  0  0  0
   -1.0312   -4.2133    0.0000 O   0  5  0  0  0  0  0  0  0  0  0  0
  1  2  1  0  0  0  0
  2  3  1  0  0  0  0
  2  7  1  0  0  0  0
  3  4  1  0  0  0  0
  4  5  1  0  0  0  0
  5  6  1  0  0  0  0
  6  7  1  0  0  0  0
  7  8  1  0  0  0  0
 10 11  1  0  0  0  0
 11 12  2  0  0  0  0
 11 13  1  0  0  0  0
 13 14  2  0  0  0  0
 13 15  1  0  0  0  0
M  CHG  3   9   2  10  -1  15  -1
M  END
>  <CdId>
176

>  <Mol Weight>
397.292

>  <Formula>
C8H14N2O4Pt

>  <ID>
T0164

>  <Name>
Oxaliplatin

>  <Synonyms>
L-OHP

>  <CAS>
61825-94-3

>  <Approved status>
FDA

>  <Disease>
Cancer

>  <Indication>
Colorectal Cancer

>  <Pathways>
DNA Damage/DNA Repair

>  <Target>
DNA/RNA Synthesis inhibitor

>  <Receptor>
DNA synthesis

$$$$
