Perindopril erbumine
 OpenBabel02212023462D

 31 31  0  0  1  0  0  0  0  0999 V2000
    0.0000   -0.8250    0.0000 C   0  0  0  0  0  0  0  0  0  0  0  0
    0.0000    0.0000    0.0000 C   0  0  0  0  0  0  0  0  0  0  0  0
    0.0000    0.8250    0.0000 C   0  0  0  0  0  0  0  0  0  0  0  0
    0.8250   -0.0000    0.0000 C   0  0  0  0  0  0  0  0  0  0  0  0
   -0.8250    0.0000    0.0000 N   0  0  0  0  0  0  0  0  0  0  0  0
    4.6563   -0.2370    0.0000 N   0  0  0  0  0  0  0  0  0  0  0  0
    4.5700    0.5834    0.0000 C   0  0  2  0  0  0  0  0  0  0  0  0
    3.7630    0.7550    0.0000 C   0  0  2  0  0  0  0  0  0  0  0  0
    3.3505    0.0405    0.0000 C   0  0  0  0  0  0  0  0  0  0  0  0
    3.9026   -0.5726    0.0000 C   0  0  1  0  0  0  0  0  0  0  0  0
    3.7311   -1.3796    0.0000 C   0  0  0  0  0  0  0  0  0  0  0  0
    4.3441   -1.9316    0.0000 O   0  0  0  0  0  0  0  0  0  0  0  0
    2.9464   -1.6345    0.0000 O   0  0  0  0  0  0  0  0  0  0  0  0
    3.5081    1.5396    0.0000 C   0  0  0  0  0  0  0  0  0  0  0  0
    4.0601    2.1527    0.0000 C   0  0  0  0  0  0  0  0  0  0  0  0
    4.8671    1.9812    0.0000 C   0  0  0  0  0  0  0  0  0  0  0  0
    5.1220    1.1965    0.0000 C   0  0  0  0  0  0  0  0  0  0  0  0
    5.3707   -0.6495    0.0000 C   0  0  0  0  0  0  0  0  0  0  0  0
    5.3707   -1.4745    0.0000 O   0  0  0  0  0  0  0  0  0  0  0  0
    6.0852   -0.2370    0.0000 C   0  0  1  0  0  0  0  0  0  0  0  0
    6.7997   -0.6495    0.0000 N   0  0  0  0  0  0  0  0  0  0  0  0
    7.5141   -0.2370    0.0000 C   0  0  2  0  0  0  0  0  0  0  0  0
    8.2286   -0.6495    0.0000 C   0  0  0  0  0  0  0  0  0  0  0  0
    8.2286   -1.4745    0.0000 O   0  0  0  0  0  0  0  0  0  0  0  0
    8.9431   -0.2370    0.0000 O   0  0  0  0  0  0  0  0  0  0  0  0
    9.6575   -0.6495    0.0000 C   0  0  0  0  0  0  0  0  0  0  0  0
   10.3720   -0.2370    0.0000 C   0  0  0  0  0  0  0  0  0  0  0  0
    7.5141    0.5880    0.0000 C   0  0  0  0  0  0  0  0  0  0  0  0
    6.7997    1.0005    0.0000 C   0  0  0  0  0  0  0  0  0  0  0  0
    6.7997    1.8255    0.0000 C   0  0  0  0  0  0  0  0  0  0  0  0
    6.0852    0.5880    0.0000 C   0  0  0  0  0  0  0  0  0  0  0  0
  1  2  1  0  0  0  0
  2  3  1  0  0  0  0
  2  4  1  0  0  0  0
  2  5  1  0  0  0  0
  6 10  1  0  0  0  0
  6 18  1  0  0  0  0
  7  6  1  0  0  0  0
  7  8  1  0  0  0  0
  7 17  1  6  0  0  0
  8  9  1  6  0  0  0
  8 14  1  0  0  0  0
  9 10  1  0  0  0  0
 10 11  1  6  0  0  0
 11 12  2  0  0  0  0
 11 13  1  0  0  0  0
 14 15  1  0  0  0  0
 15 16  1  0  0  0  0
 16 17  1  0  0  0  0
 18 19  2  0  0  0  0
 18 20  1  0  0  0  0
 20 21  1  0  0  0  0
 20 31  1  6  0  0  0
 22 21  1  0  0  0  0
 22 23  1  0  0  0  0
 22 28  1  1  0  0  0
 23 24  2  0  0  0  0
 23 25  1  0  0  0  0
 25 26  1  0  0  0  0
 26 27  1  0  0  0  0
 28 29  1  0  0  0  0
 29 30  1  0  0  0  0
M  END
>  <CdId>
837

>  <Mol Weight>
441.6046

>  <Formula>
C23H43N3O5

>  <ID>
T1484L

>  <Name>
Perindopril erbumine

>  <Synonyms>
Perindopril tert-butylamine salt

>  <CAS>
107133-36-8

>  <Approved status>
FDA

>  <Disease>
Cardiovascular system

>  <Indication>
Hypertension; Congestive Heart-Failure

>  <Pathways>
Endocrinology/Hormones; Immunology/Inflammation

>  <Target>
MRP inhibitor; RAAS inhibitor

>  <Receptor>
MRP1; ACE

$$$$
