Phenibut
 OpenBabel02212023462D

 14 13  0  0  0  0  0  0  0  0999 V2000
    0.0000    0.0000    0.0000 Cl  0  0  0  0  0  0  0  0  0  0  0  0
    3.5504   -1.4596    0.0000 N   0  0  0  0  0  0  0  0  0  0  0  0
    4.2648   -1.0471    0.0000 C   0  0  0  0  0  0  0  0  0  0  0  0
    4.2648   -0.2221    0.0000 C   0  0  3  0  0  0  0  0  0  0  0  0
    4.9793    0.1904    0.0000 C   0  0  0  0  0  0  0  0  0  0  0  0
    5.6938   -0.2221    0.0000 C   0  0  0  0  0  0  0  0  0  0  0  0
    6.4083    0.1904    0.0000 O   0  0  0  0  0  0  0  0  0  0  0  0
    5.6938   -1.0471    0.0000 O   0  0  0  0  0  0  0  0  0  0  0  0
    3.5504    0.1904    0.0000 C   0  0  0  0  0  0  0  0  0  0  0  0
    2.8359   -0.2221    0.0000 C   0  0  0  0  0  0  0  0  0  0  0  0
    2.1214    0.1904    0.0000 C   0  0  0  0  0  0  0  0  0  0  0  0
    2.1214    1.0154    0.0000 C   0  0  0  0  0  0  0  0  0  0  0  0
    2.8359    1.4279    0.0000 C   0  0  0  0  0  0  0  0  0  0  0  0
    3.5504    1.0154    0.0000 C   0  0  0  0  0  0  0  0  0  0  0  0
  2  3  1  0  0  0  0
  3  4  1  0  0  0  0
  4  5  1  0  0  0  0
  4  9  1  0  0  0  0
  5  6  1  0  0  0  0
  6  7  1  0  0  0  0
  6  8  2  0  0  0  0
  9 10  2  0  0  0  0
  9 14  1  0  0  0  0
 10 11  1  0  0  0  0
 11 12  2  0  0  0  0
 12 13  1  0  0  0  0
 13 14  2  0  0  0  0
M  END
>  <CdId>
2774

>  <Formula>
C10H14ClNO2

>  <ID>
T2990

>  <Name>
Phenibut

>  <Synonyms>
Aminophenylbutyric acid; Fenibut; Fenigam; Phenybut; PhGABA; ¦Â-Phenyl-¦Ã-aminobutyric acid

>  <CAS>
1078-21-3

>  <MolWt>
215.68

>  <Pathways>
Membrane transporter/Ion channel; Neuroscience

>  <Target>
GABA Receptor inhibitor

>  <Receptor>
GABAR

$$$$
