Propantheline bromide
 OpenBabel02212023462D

 28 29  0  0  0  0  0  0  0  0999 V2000
    0.0000    0.0000    0.0000 Br  0  5  0  0  0  0  0  0  0  0  0  0
    8.2618    1.9211    0.0000 C   0  0  0  0  0  0  0  0  0  0  0  0
    7.8882    1.1856    0.0000 C   0  0  0  0  0  0  0  0  0  0  0  0
    8.3383    0.4942    0.0000 C   0  0  0  0  0  0  0  0  0  0  0  0
    7.0643    1.1415    0.0000 N   0  3  0  0  0  0  0  0  0  0  0  0
    7.0202    1.9653    0.0000 C   0  0  0  0  0  0  0  0  0  0  0  0
    6.2405    1.0973    0.0000 C   0  0  0  0  0  0  0  0  0  0  0  0
    5.8668    0.3618    0.0000 C   0  0  0  0  0  0  0  0  0  0  0  0
    5.0430    0.3176    0.0000 O   0  0  0  0  0  0  0  0  0  0  0  0
    4.6693   -0.4179    0.0000 C   0  0  0  0  0  0  0  0  0  0  0  0
    5.1195   -1.1093    0.0000 O   0  0  0  0  0  0  0  0  0  0  0  0
    3.8455   -0.4620    0.0000 C   0  0  0  0  0  0  0  0  0  0  0  0
    3.4719   -1.1975    0.0000 C   0  0  0  0  0  0  0  0  0  0  0  0
    3.9220   -1.8889    0.0000 C   0  0  0  0  0  0  0  0  0  0  0  0
    3.5483   -2.6244    0.0000 C   0  0  0  0  0  0  0  0  0  0  0  0
    2.7245   -2.6686    0.0000 C   0  0  0  0  0  0  0  0  0  0  0  0
    2.2744   -1.9772    0.0000 C   0  0  0  0  0  0  0  0  0  0  0  0
    2.6480   -1.2417    0.0000 C   0  0  0  0  0  0  0  0  0  0  0  0
    2.1979   -0.5503    0.0000 O   0  0  0  0  0  0  0  0  0  0  0  0
    2.5716    0.1852    0.0000 C   0  0  0  0  0  0  0  0  0  0  0  0
    2.1214    0.8766    0.0000 C   0  0  0  0  0  0  0  0  0  0  0  0
    2.4951    1.6121    0.0000 C   0  0  0  0  0  0  0  0  0  0  0  0
    3.3189    1.6562    0.0000 C   0  0  0  0  0  0  0  0  0  0  0  0
    3.7691    0.9649    0.0000 C   0  0  0  0  0  0  0  0  0  0  0  0
    3.3954    0.2293    0.0000 C   0  0  0  0  0  0  0  0  0  0  0  0
    7.1085    0.3176    0.0000 C   0  0  0  0  0  0  0  0  0  0  0  0
    7.8440   -0.0560    0.0000 C   0  0  0  0  0  0  0  0  0  0  0  0
    6.4171   -0.1325    0.0000 C   0  0  0  0  0  0  0  0  0  0  0  0
  2  3  1  0  0  0  0
  3  4  1  0  0  0  0
  3  5  1  0  0  0  0
  5  6  1  0  0  0  0
  5  7  1  0  0  0  0
  5 26  1  0  0  0  0
  7  8  1  0  0  0  0
  8  9  1  0  0  0  0
  9 10  1  0  0  0  0
 10 11  2  0  0  0  0
 10 12  1  0  0  0  0
 12 13  1  0  0  0  0
 12 25  1  0  0  0  0
 13 14  2  0  0  0  0
 13 18  1  0  0  0  0
 14 15  1  0  0  0  0
 15 16  2  0  0  0  0
 16 17  1  0  0  0  0
 17 18  2  0  0  0  0
 18 19  1  0  0  0  0
 19 20  1  0  0  0  0
 20 21  2  0  0  0  0
 20 25  1  0  0  0  0
 21 22  1  0  0  0  0
 22 23  2  0  0  0  0
 23 24  1  0  0  0  0
 24 25  2  0  0  0  0
 26 27  1  0  0  0  0
 26 28  1  0  0  0  0
M  CHG  2   1  -1   5   1
M  END
>  <CdId>
571

>  <Mol Weight>
448.393

>  <Formula>
C23H30BrNO3

>  <ID>
T1006

>  <Name>
Propantheline bromide

>  <Synonyms>
Pro-Banthine;Neometantyl;Neopepulsan

>  <CAS>
50-34-0

>  <Approved status>
FDA

>  <Disease>
Nervous system

>  <Indication>
Overactive Bladder Associated With Htlv-1

>  <Pathways>
Neuroscience

>  <Target>
AChR antagonist

>  <Receptor>
mAChR

$$$$
