Propranolol hydrochloride
 OpenBabel02212023462D

 20 20  0  0  0  0  0  0  0  0999 V2000
    0.0000    0.0000    0.0000 Cl  0  0  0  0  0  0  0  0  0  0  0  0
    2.2393   -0.1954    0.0000 C   0  0  0  0  0  0  0  0  0  0  0  0
    2.9538    0.2171    0.0000 C   0  0  0  0  0  0  0  0  0  0  0  0
    2.9538    1.0421    0.0000 C   0  0  0  0  0  0  0  0  0  0  0  0
    3.6682   -0.1954    0.0000 N   0  0  0  0  0  0  0  0  0  0  0  0
    4.3827    0.2171    0.0000 C   0  0  0  0  0  0  0  0  0  0  0  0
    5.0972   -0.1954    0.0000 C   0  0  3  0  0  0  0  0  0  0  0  0
    5.0972   -1.0204    0.0000 O   0  0  0  0  0  0  0  0  0  0  0  0
    5.8116    0.2171    0.0000 C   0  0  0  0  0  0  0  0  0  0  0  0
    6.5261   -0.1954    0.0000 O   0  0  0  0  0  0  0  0  0  0  0  0
    7.2406    0.2171    0.0000 C   0  0  0  0  0  0  0  0  0  0  0  0
    7.2406    1.0421    0.0000 C   0  0  0  0  0  0  0  0  0  0  0  0
    7.9551    1.4546    0.0000 C   0  0  0  0  0  0  0  0  0  0  0  0
    8.6695    1.0421    0.0000 C   0  0  0  0  0  0  0  0  0  0  0  0
    8.6695    0.2171    0.0000 C   0  0  0  0  0  0  0  0  0  0  0  0
    9.3840   -0.1954    0.0000 C   0  0  0  0  0  0  0  0  0  0  0  0
    9.3840   -1.0204    0.0000 C   0  0  0  0  0  0  0  0  0  0  0  0
    8.6695   -1.4329    0.0000 C   0  0  0  0  0  0  0  0  0  0  0  0
    7.9551   -1.0204    0.0000 C   0  0  0  0  0  0  0  0  0  0  0  0
    7.9551   -0.1954    0.0000 C   0  0  0  0  0  0  0  0  0  0  0  0
  2  3  1  0  0  0  0
  3  4  1  0  0  0  0
  3  5  1  0  0  0  0
  5  6  1  0  0  0  0
  6  7  1  0  0  0  0
  7  8  1  0  0  0  0
  7  9  1  0  0  0  0
  9 10  1  0  0  0  0
 10 11  1  0  0  0  0
 11 12  2  0  0  0  0
 11 20  1  0  0  0  0
 12 13  1  0  0  0  0
 13 14  2  0  0  0  0
 14 15  1  0  0  0  0
 15 16  2  0  0  0  0
 15 20  1  0  0  0  0
 16 17  1  0  0  0  0
 17 18  2  0  0  0  0
 18 19  1  0  0  0  0
 19 20  2  0  0  0  0
M  END
>  <CdId>
458

>  <Mol Weight>
295.804

>  <Formula>
C16H22ClNO2

>  <ID>
T0812

>  <Name>
Propranolol hydrochloride

>  <Synonyms>
AY-64043;ICI-45520;NCS-91523

>  <CAS>
318-98-9

>  <Approved status>
FDA

>  <Disease>
Cancer

>  <Indication>
Haemangioma

>  <Pathways>
GPCR/G Protein

>  <Target>
Adrenergic Receptor antagonist

>  <Receptor>
¦Â-adrenergic receptor

$$$$
