PZM21
 OpenBabel02212023462D

 25 26  0  0  1  0  0  0  0  0999 V2000
    2.5878   -4.1704    0.0000 C   0  0  0  0  0  0  0  0  0  0  0  0
    2.8579   -4.9500    0.0000 C   0  0  1  0  0  0  0  0  0  0  0  0
    2.3178   -5.5736    0.0000 C   0  0  0  0  0  0  0  0  0  0  0  0
    1.5077   -5.4177    0.0000 C   0  0  0  0  0  0  0  0  0  0  0  0
    0.9053   -5.9815    0.0000 C   0  0  0  0  0  0  0  0  0  0  0  0
    0.1830   -5.5829    0.0000 C   0  0  0  0  0  0  0  0  0  0  0  0
    0.3389   -4.7727    0.0000 S   0  0  0  0  0  0  0  0  0  0  0  0
    1.1576   -4.6707    0.0000 C   0  0  0  0  0  0  0  0  0  0  0  0
    3.6680   -5.1059    0.0000 N   0  0  0  0  0  0  0  0  0  0  0  0
    4.2081   -4.4823    0.0000 C   0  0  0  0  0  0  0  0  0  0  0  0
    3.9381   -3.7027    0.0000 O   0  0  0  0  0  0  0  0  0  0  0  0
    5.0182   -4.6382    0.0000 N   0  0  0  0  0  0  0  0  0  0  0  0
    5.5583   -4.0145    0.0000 C   0  0  0  0  0  0  0  0  0  0  0  0
    6.3685   -4.1704    0.0000 C   0  0  2  0  0  0  0  0  0  0  0  0
    6.9086   -3.5468    0.0000 C   0  0  0  0  0  0  0  0  0  0  0  0
    7.7187   -3.7027    0.0000 C   0  0  0  0  0  0  0  0  0  0  0  0
    8.2588   -3.0791    0.0000 C   0  0  0  0  0  0  0  0  0  0  0  0
    9.0689   -3.2350    0.0000 C   0  0  0  0  0  0  0  0  0  0  0  0
    9.3390   -4.0145    0.0000 C   0  0  0  0  0  0  0  0  0  0  0  0
   10.1491   -4.1704    0.0000 O   0  0  0  0  0  0  0  0  0  0  0  0
    8.7989   -4.6382    0.0000 C   0  0  0  0  0  0  0  0  0  0  0  0
    7.9887   -4.4823    0.0000 C   0  0  0  0  0  0  0  0  0  0  0  0
    6.6385   -4.9500    0.0000 N   0  0  0  0  0  0  0  0  0  0  0  0
    7.4486   -5.1059    0.0000 C   0  0  0  0  0  0  0  0  0  0  0  0
    6.0984   -5.5736    0.0000 C   0  0  0  0  0  0  0  0  0  0  0  0
  2  1  1  6  0  0  0
  2  3  1  0  0  0  0
  2  9  1  0  0  0  0
  3  4  1  0  0  0  0
  4  5  1  0  0  0  0
  4  8  2  0  0  0  0
  5  6  2  0  0  0  0
  6  7  1  0  0  0  0
  7  8  1  0  0  0  0
  9 10  1  0  0  0  0
 10 11  2  0  0  0  0
 10 12  1  0  0  0  0
 12 13  1  0  0  0  0
 14 13  1  6  0  0  0
 14 15  1  0  0  0  0
 14 23  1  0  0  0  0
 15 16  1  0  0  0  0
 16 17  2  0  0  0  0
 16 22  1  0  0  0  0
 17 18  1  0  0  0  0
 18 19  2  0  0  0  0
 19 20  1  0  0  0  0
 19 21  1  0  0  0  0
 21 22  2  0  0  0  0
 23 24  1  0  0  0  0
 23 25  1  0  0  0  0
M  END
>  <CdId>
1587

>  <Formula>
C19H27N3O2S

>  <ID>
T4386

>  <Name>
PZM21

>  <CAS>
1997387-43-5

>  <MolWt>
361.5

>  <Pathways>
Neuroscience

>  <Target>
Opioid Receptor agonist

>  <Receptor>
¦Ì-opioid receptor

$$$$
