Quinapril hydrochloride
 OpenBabel02212023462D

 33 34  0  0  1  0  0  0  0  0999 V2000
   -0.9030    1.5835    0.0000 C   0  0  0  0  0  0  0  0  0  0  0  0
   -1.4431    0.9598    0.0000 N   0  0  0  0  0  0  0  0  0  0  0  0
   -2.2532    1.1157    0.0000 C   0  0  1  0  0  0  0  0  0  0  0  0
   -2.5232    1.8953    0.0000 C   0  0  0  0  0  0  0  0  0  0  0  0
   -1.9831    2.5189    0.0000 C   0  0  0  0  0  0  0  0  0  0  0  0
   -2.2532    3.2985    0.0000 C   0  0  0  0  0  0  0  0  0  0  0  0
   -1.7131    3.9221    0.0000 C   0  0  0  0  0  0  0  0  0  0  0  0
   -0.9030    3.7662    0.0000 C   0  0  0  0  0  0  0  0  0  0  0  0
   -0.6329    2.9867    0.0000 C   0  0  0  0  0  0  0  0  0  0  0  0
   -1.1730    2.3630    0.0000 C   0  0  0  0  0  0  0  0  0  0  0  0
   -2.7933    0.4921    0.0000 C   0  0  0  0  0  0  0  0  0  0  0  0
   -3.6034    0.6480    0.0000 O   0  0  0  0  0  0  0  0  0  0  0  0
   -2.5232   -0.2875    0.0000 O   0  0  0  0  0  0  0  0  0  0  0  0
   -1.1730    0.1803    0.0000 C   0  0  0  0  0  0  0  0  0  0  0  0
   -1.7131   -0.4434    0.0000 O   0  0  0  0  0  0  0  0  0  0  0  0
   -0.3629    0.0244    0.0000 C   0  0  2  0  0  0  0  0  0  0  0  0
    0.1772    0.6480    0.0000 C   0  0  0  0  0  0  0  0  0  0  0  0
   -0.0928   -0.7552    0.0000 N   0  0  0  0  0  0  0  0  0  0  0  0
    0.7173   -0.9111    0.0000 C   0  0  1  0  0  0  0  0  0  0  0  0
    0.9874   -1.6907    0.0000 C   0  0  0  0  0  0  0  0  0  0  0  0
    1.7975   -1.8466    0.0000 C   0  0  0  0  0  0  0  0  0  0  0  0
    2.0675   -2.6261    0.0000 C   0  0  0  0  0  0  0  0  0  0  0  0
    2.8777   -2.7820    0.0000 C   0  0  0  0  0  0  0  0  0  0  0  0
    3.1477   -3.5616    0.0000 C   0  0  0  0  0  0  0  0  0  0  0  0
    2.6076   -4.1852    0.0000 C   0  0  0  0  0  0  0  0  0  0  0  0
    1.7975   -4.0293    0.0000 C   0  0  0  0  0  0  0  0  0  0  0  0
    1.5274   -3.2498    0.0000 C   0  0  0  0  0  0  0  0  0  0  0  0
    1.2574   -0.2875    0.0000 C   0  0  0  0  0  0  0  0  0  0  0  0
    0.9874    0.4921    0.0000 O   0  0  0  0  0  0  0  0  0  0  0  0
    2.0675   -0.4434    0.0000 O   0  0  0  0  0  0  0  0  0  0  0  0
    2.6076    0.1803    0.0000 C   0  0  0  0  0  0  0  0  0  0  0  0
    3.4178    0.0244    0.0000 C   0  0  0  0  0  0  0  0  0  0  0  0
    5.6570    0.0000    0.0000 Cl  0  0  0  0  0  0  0  0  0  0  0  0
  1  2  1  0  0  0  0
  1 10  1  0  0  0  0
  2  3  1  0  0  0  0
  2 14  1  0  0  0  0
  3  4  1  0  0  0  0
  3 11  1  6  0  0  0
  4  5  1  0  0  0  0
  5  6  2  0  0  0  0
  5 10  1  0  0  0  0
  6  7  1  0  0  0  0
  7  8  2  0  0  0  0
  8  9  1  0  0  0  0
  9 10  2  0  0  0  0
 11 12  2  0  0  0  0
 11 13  1  0  0  0  0
 14 15  2  0  0  0  0
 14 16  1  0  0  0  0
 16 17  1  6  0  0  0
 16 18  1  0  0  0  0
 19 18  1  0  0  0  0
 19 20  1  6  0  0  0
 19 28  1  0  0  0  0
 20 21  1  0  0  0  0
 21 22  1  0  0  0  0
 22 23  2  0  0  0  0
 22 27  1  0  0  0  0
 23 24  1  0  0  0  0
 24 25  2  0  0  0  0
 25 26  1  0  0  0  0
 26 27  2  0  0  0  0
 28 29  2  0  0  0  0
 28 30  1  0  0  0  0
 30 31  1  0  0  0  0
 31 32  1  0  0  0  0
M  END
>  <CdId>
454

>  <Mol Weight>
474.977

>  <Formula>
C25H31ClN2O5

>  <ID>
T0805

>  <Name>
Quinapril hydrochloride

>  <Synonyms>
CI-906;PD-109452-2

>  <CAS>
82586-55-8

>  <Approved status>
FDA

>  <Disease>
Cardiovascular system

>  <Indication>
Heart Failure; Hypertension

>  <Pathways>
Endocrinology/Hormones

>  <Target>
RAAS inhibitor

>  <Receptor>
ACE

$$$$
