Raltegravir
 OpenBabel02212023462D

 32 34  0  0  0  0  0  0  0  0999 V2000
    3.5724   -6.1875    0.0000 C   0  0  0  0  0  0  0  0  0  0  0  0
    3.5724   -7.0125    0.0000 C   0  0  0  0  0  0  0  0  0  0  0  0
    4.2398   -7.4974    0.0000 N   0  0  0  0  0  0  0  0  0  0  0  0
    3.9849   -8.2820    0.0000 N   0  0  0  0  0  0  0  0  0  0  0  0
    3.1599   -8.2820    0.0000 C   0  0  0  0  0  0  0  0  0  0  0  0
    2.9049   -7.4974    0.0000 O   0  0  0  0  0  0  0  0  0  0  0  0
    2.6749   -8.9495    0.0000 C   0  0  0  0  0  0  0  0  0  0  0  0
    1.8545   -8.8632    0.0000 O   0  0  0  0  0  0  0  0  0  0  0  0
    3.0105   -9.7032    0.0000 N   0  0  0  0  0  0  0  0  0  0  0  0
    2.5256  -10.3706    0.0000 C   0  0  0  0  0  0  0  0  0  0  0  0
    1.8581   -9.8857    0.0000 C   0  0  0  0  0  0  0  0  0  0  0  0
    3.1930  -10.8555    0.0000 C   0  0  0  0  0  0  0  0  0  0  0  0
    2.0406  -11.0380    0.0000 C   0  0  0  0  0  0  0  0  0  0  0  0
    2.3762  -11.7917    0.0000 N   0  0  0  0  0  0  0  0  0  0  0  0
    1.8913  -12.4592    0.0000 C   0  0  0  0  0  0  0  0  0  0  0  0
    1.0708  -12.3729    0.0000 C   0  0  0  0  0  0  0  0  0  0  0  0
    0.7352  -11.6192    0.0000 C   0  0  0  0  0  0  0  0  0  0  0  0
   -0.0852  -11.5330    0.0000 O   0  0  0  0  0  0  0  0  0  0  0  0
    1.2202  -10.9518    0.0000 N   0  0  0  0  0  0  0  0  0  0  0  0
    0.8846  -10.1981    0.0000 C   0  0  0  0  0  0  0  0  0  0  0  0
    0.5859  -13.0404    0.0000 O   0  0  0  0  0  0  0  0  0  0  0  0
    2.2268  -13.2128    0.0000 C   0  0  0  0  0  0  0  0  0  0  0  0
    3.0473  -13.2991    0.0000 O   0  0  0  0  0  0  0  0  0  0  0  0
    1.7419  -13.8803    0.0000 N   0  0  0  0  0  0  0  0  0  0  0  0
    2.0775  -14.6339    0.0000 C   0  0  0  0  0  0  0  0  0  0  0  0
    1.5925  -15.3014    0.0000 C   0  0  0  0  0  0  0  0  0  0  0  0
    1.9281  -16.0551    0.0000 C   0  0  0  0  0  0  0  0  0  0  0  0
    1.4432  -16.7225    0.0000 C   0  0  0  0  0  0  0  0  0  0  0  0
    0.6227  -16.6363    0.0000 C   0  0  0  0  0  0  0  0  0  0  0  0
    0.2871  -15.8826    0.0000 C   0  0  0  0  0  0  0  0  0  0  0  0
    0.7721  -15.2151    0.0000 C   0  0  0  0  0  0  0  0  0  0  0  0
    0.1378  -17.3037    0.0000 F   0  0  0  0  0  0  0  0  0  0  0  0
  1  2  1  0  0  0  0
  2  3  2  0  0  0  0
  2  6  1  0  0  0  0
  3  4  1  0  0  0  0
  4  5  2  0  0  0  0
  5  6  1  0  0  0  0
  5  7  1  0  0  0  0
  7  8  2  0  0  0  0
  7  9  1  0  0  0  0
  9 10  1  0  0  0  0
 10 11  1  0  0  0  0
 10 12  1  0  0  0  0
 10 13  1  0  0  0  0
 13 14  2  0  0  0  0
 13 19  1  0  0  0  0
 14 15  1  0  0  0  0
 15 16  2  0  0  0  0
 15 22  1  0  0  0  0
 16 17  1  0  0  0  0
 16 21  1  0  0  0  0
 17 18  2  0  0  0  0
 17 19  1  0  0  0  0
 19 20  1  0  0  0  0
 22 23  2  0  0  0  0
 22 24  1  0  0  0  0
 24 25  1  0  0  0  0
 25 26  1  0  0  0  0
 26 27  2  0  0  0  0
 26 31  1  0  0  0  0
 27 28  1  0  0  0  0
 28 29  2  0  0  0  0
 29 30  1  0  0  0  0
 29 32  1  0  0  0  0
 30 31  2  0  0  0  0
M  END
>  <CdId>
1034

>  <Mol Weight>
444.4163

>  <Formula>
C20H21FN6O5

>  <ID>
T2239L

>  <Name>
Raltegravir

>  <Synonyms>
MK-0518

>  <CAS>
518048-05-0

>  <Approved status>
FDA

>  <Disease>
Immune system

>  <Indication>
Hiv-1 Infections

>  <Pathways>
Microbiology&Virology

>  <Target>
Integrase inhibitor

>  <Receptor>
Integrase (S217Q PFV); Integrase (WT PFV)

$$$$
