Raltegravir potassium
 OpenBabel02212023462D

 33 34  0  0  0  0  0  0  0  0999 V2000
   -2.2493    3.8053    0.0000 C   0  0  0  0  0  0  0  0  0  0  0  0
   -1.5349    3.3928    0.0000 C   0  0  0  0  0  0  0  0  0  0  0  0
   -1.5349    2.5678    0.0000 C   0  0  0  0  0  0  0  0  0  0  0  0
   -2.2493    2.1553    0.0000 C   0  0  0  0  0  0  0  0  0  0  0  0
   -2.9638    2.5678    0.0000 C   0  0  0  0  0  0  0  0  0  0  0  0
   -2.9638    3.3928    0.0000 C   0  0  0  0  0  0  0  0  0  0  0  0
   -2.2493    1.3303    0.0000 C   0  0  0  0  0  0  0  0  0  0  0  0
   -1.5349    0.9178    0.0000 N   0  0  0  0  0  0  0  0  0  0  0  0
   -0.8204    1.3303    0.0000 C   0  0  0  0  0  0  0  0  0  0  0  0
   -0.8204    2.1553    0.0000 O   0  0  0  0  0  0  0  0  0  0  0  0
   -0.1059    0.9178    0.0000 C   0  0  0  0  0  0  0  0  0  0  0  0
    0.6086    1.3303    0.0000 C   0  0  0  0  0  0  0  0  0  0  0  0
    0.6086    2.1553    0.0000 O   0  5  0  0  0  0  0  0  0  0  0  0
    1.3230    0.9178    0.0000 C   0  0  0  0  0  0  0  0  0  0  0  0
    2.0375    1.3303    0.0000 O   0  0  0  0  0  0  0  0  0  0  0  0
    1.3230    0.0928    0.0000 N   0  0  0  0  0  0  0  0  0  0  0  0
    0.6086   -0.3197    0.0000 C   0  0  0  0  0  0  0  0  0  0  0  0
   -0.1059    0.0928    0.0000 N   0  0  0  0  0  0  0  0  0  0  0  0
    0.6086   -1.1447    0.0000 C   0  0  0  0  0  0  0  0  0  0  0  0
    0.6086   -1.9697    0.0000 N   0  0  0  0  0  0  0  0  0  0  0  0
    1.3230   -2.3822    0.0000 C   0  0  0  0  0  0  0  0  0  0  0  0
    2.0375   -1.9697    0.0000 O   0  0  0  0  0  0  0  0  0  0  0  0
    1.3230   -3.2072    0.0000 C   0  0  0  0  0  0  0  0  0  0  0  0
    1.9905   -3.6921    0.0000 N   0  0  0  0  0  0  0  0  0  0  0  0
    1.7355   -4.4767    0.0000 N   0  0  0  0  0  0  0  0  0  0  0  0
    0.9105   -4.4767    0.0000 C   0  0  0  0  0  0  0  0  0  0  0  0
    0.6556   -3.6921    0.0000 O   0  0  0  0  0  0  0  0  0  0  0  0
    0.4256   -5.1441    0.0000 C   0  0  0  0  0  0  0  0  0  0  0  0
    1.4336   -1.1447    0.0000 C   0  0  0  0  0  0  0  0  0  0  0  0
   -0.2164   -1.1447    0.0000 C   0  0  0  0  0  0  0  0  0  0  0  0
    2.0375   -0.3197    0.0000 C   0  0  0  0  0  0  0  0  0  0  0  0
   -2.2493    4.6303    0.0000 F   0  0  0  0  0  0  0  0  0  0  0  0
    4.1589    0.0000    0.0000 K   0  3  0  0  0 15  0  0  0  0  0  0
  1  2  2  0  0  0  0
  1  6  1  0  0  0  0
  1 32  1  0  0  0  0
  2  3  1  0  0  0  0
  3  4  2  0  0  0  0
  4  5  1  0  0  0  0
  4  7  1  0  0  0  0
  5  6  2  0  0  0  0
  7  8  1  0  0  0  0
  8  9  1  0  0  0  0
  9 10  2  0  0  0  0
  9 11  1  0  0  0  0
 11 12  2  0  0  0  0
 11 18  1  0  0  0  0
 12 13  1  0  0  0  0
 12 14  1  0  0  0  0
 14 15  2  0  0  0  0
 14 16  1  0  0  0  0
 16 17  1  0  0  0  0
 16 31  1  0  0  0  0
 17 18  2  0  0  0  0
 17 19  1  0  0  0  0
 19 20  1  0  0  0  0
 19 29  1  0  0  0  0
 19 30  1  0  0  0  0
 20 21  1  0  0  0  0
 21 22  2  0  0  0  0
 21 23  1  0  0  0  0
 23 24  2  0  0  0  0
 23 27  1  0  0  0  0
 24 25  1  0  0  0  0
 25 26  2  0  0  0  0
 26 27  1  0  0  0  0
 26 28  1  0  0  0  0
M  CHG  2  13  -1  33   1
M  END
>  <CdId>
3426

>  <Formula>
C20H20FKN6O5

>  <ID>
T2239

>  <Name>
Raltegravir potassium

>  <Synonyms>
MK 0518 potassium salt; Raltegravir potassium salt

>  <CAS>
871038-72-1

>  <MolWt>
482.51

>  <Pathways>
Microbiology&Virology; Proteases/Proteasome

>  <Target>
HIV Protease inhibitor; Integrase inhibitor

>  <Receptor>
HIV; Integrase (IN)

$$$$
