Ribitol
 OpenBabel02212023462D

 10  9  0  0  1  0  0  0  0  0999 V2000
    3.1895    1.8414    0.0000 C   0  0  2  0  0  0  0  0  0  0  0  0
    3.1895    2.6664    0.0000 O   0  0  0  0  0  0  0  0  0  0  0  0
    2.4750    1.4289    0.0000 C   0  0  0  0  0  0  0  0  0  0  0  0
    1.7605    1.8414    0.0000 O   0  0  0  0  0  0  0  0  0  0  0  0
    3.9039    1.4289    0.0000 C   0  0  1  0  0  0  0  0  0  0  0  0
    3.9039    0.6039    0.0000 O   0  0  0  0  0  0  0  0  0  0  0  0
    4.6184    1.8414    0.0000 C   0  0  2  0  0  0  0  0  0  0  0  0
    5.3329    1.4289    0.0000 C   0  0  0  0  0  0  0  0  0  0  0  0
    6.0474    1.8414    0.0000 O   0  0  0  0  0  0  0  0  0  0  0  0
    4.6184    2.6664    0.0000 O   0  0  0  0  0  0  0  0  0  0  0  0
  1  2  1  1  0  0  0
  1  3  1  0  0  0  0
  1  5  1  0  0  0  0
  3  4  1  0  0  0  0
  5  6  1  6  0  0  0
  5  7  1  0  0  0  0
  7  8  1  0  0  0  0
  7 10  1  1  0  0  0
  8  9  1  0  0  0  0
M  END
>  <CdId>
117

>  <Formula>
C5H12O5

>  <ID>
T6640

>  <Name>
Ribitol

>  <Synonyms>
Adonitol;Adonite

>  <CAS>
488-81-3

>  <Source>
Animal

>  <category>
Others

>  <MolWt>
152.15

>  <Pathways>
Others

>  <Target>
Others

>  <Receptor>
Others

$$$$
