S-(5'-Adenosyl)-L-methionine tosylate
 OpenBabel02212023462D

 38 40  0  0  1  0  0  0  0  0999 V2000
    0.0000    2.1750    0.0000 C   0  0  0  0  0  0  0  0  0  0  0  0
    0.0000    1.3500    0.0000 C   0  0  0  0  0  0  0  0  0  0  0  0
    0.7145    0.9375    0.0000 C   0  0  0  0  0  0  0  0  0  0  0  0
    0.7145    0.1125    0.0000 C   0  0  0  0  0  0  0  0  0  0  0  0
    0.0000   -0.3000    0.0000 C   0  0  0  0  0  0  0  0  0  0  0  0
   -0.7145    0.1125    0.0000 C   0  0  0  0  0  0  0  0  0  0  0  0
   -0.7145    0.9375    0.0000 C   0  0  0  0  0  0  0  0  0  0  0  0
   -0.0000   -1.1250    0.0000 S   0  0  0  0  0  0  0  0  0  0  0  0
   -0.0000   -1.9500    0.0000 O   0  5  0  0  0  0  0  0  0  0  0  0
   -0.8250   -1.1250    0.0000 O   0  0  0  0  0  0  0  0  0  0  0  0
    0.8250   -1.1250    0.0000 O   0  0  0  0  0  0  0  0  0  0  0  0
    6.5188   -0.4063    0.0000 C   0  0  0  0  0  0  0  0  0  0  0  0
    6.5188    0.4187    0.0000 S   0  3  3  0  0  0  0  0  0  0  0  0
    5.8043    0.8312    0.0000 C   0  0  0  0  0  0  0  0  0  0  0  0
    5.0898    0.4187    0.0000 C   0  0  0  0  0  0  0  0  0  0  0  0
    4.3754    0.8312    0.0000 C   0  0  2  0  0  0  0  0  0  0  0  0
    4.3754    1.6562    0.0000 N   0  0  0  0  0  0  0  0  0  0  0  0
    3.6609    0.4187    0.0000 C   0  0  0  0  0  0  0  0  0  0  0  0
    2.9464    0.8312    0.0000 O   0  0  0  0  0  0  0  0  0  0  0  0
    3.6609   -0.4063    0.0000 O   0  0  0  0  0  0  0  0  0  0  0  0
    7.2333    0.8312    0.0000 C   0  0  0  0  0  0  0  0  0  0  0  0
    7.9477    0.4187    0.0000 C   0  0  1  0  0  0  0  0  0  0  0  0
    8.7014    0.7543    0.0000 O   0  0  0  0  0  0  0  0  0  0  0  0
    9.2534    0.1412    0.0000 C   0  0  2  0  0  0  0  0  0  0  0  0
    8.8409   -0.5733    0.0000 C   0  0  2  0  0  0  0  0  0  0  0  0
    9.1765   -1.3270    0.0000 O   0  0  0  0  0  0  0  0  0  0  0  0
    8.0340   -0.4017    0.0000 C   0  0  2  0  0  0  0  0  0  0  0  0
    7.4209   -0.9538    0.0000 O   0  0  0  0  0  0  0  0  0  0  0  0
   10.0739    0.2274    0.0000 N   0  0  0  0  0  0  0  0  0  0  0  0
   10.4864    0.9419    0.0000 C   0  0  0  0  0  0  0  0  0  0  0  0
   11.2934    0.7704    0.0000 N   0  0  0  0  0  0  0  0  0  0  0  0
   11.3796   -0.0501    0.0000 C   0  0  0  0  0  0  0  0  0  0  0  0
   12.0471   -0.5350    0.0000 C   0  0  0  0  0  0  0  0  0  0  0  0
   12.8007   -0.1995    0.0000 N   0  0  0  0  0  0  0  0  0  0  0  0
   11.9608   -1.3555    0.0000 N   0  0  0  0  0  0  0  0  0  0  0  0
   11.2071   -1.6911    0.0000 C   0  0  0  0  0  0  0  0  0  0  0  0
   10.5397   -1.2061    0.0000 N   0  0  0  0  0  0  0  0  0  0  0  0
   10.6259   -0.3857    0.0000 C   0  0  0  0  0  0  0  0  0  0  0  0
  1  2  1  0  0  0  0
  2  3  2  0  0  0  0
  2  7  1  0  0  0  0
  3  4  1  0  0  0  0
  4  5  2  0  0  0  0
  5  6  1  0  0  0  0
  5  8  1  0  0  0  0
  6  7  2  0  0  0  0
  8  9  1  0  0  0  0
  8 10  2  0  0  0  0
  8 11  2  0  0  0  0
 12 13  1  0  0  0  0
 13 14  1  0  0  0  0
 13 21  1  0  0  0  0
 14 15  1  0  0  0  0
 15 16  1  0  0  0  0
 16 17  1  1  0  0  0
 16 18  1  0  0  0  0
 18 19  1  0  0  0  0
 18 20  2  0  0  0  0
 22 21  1  1  0  0  0
 22 23  1  0  0  0  0
 22 27  1  0  0  0  0
 23 24  1  0  0  0  0
 24 25  1  0  0  0  0
 24 29  1  1  0  0  0
 25 26  1  6  0  0  0
 25 27  1  0  0  0  0
 27 28  1  6  0  0  0
 29 30  1  0  0  0  0
 29 38  1  0  0  0  0
 30 31  2  0  0  0  0
 31 32  1  0  0  0  0
 32 33  2  0  0  0  0
 32 38  1  0  0  0  0
 33 34  1  0  0  0  0
 33 35  1  0  0  0  0
 35 36  2  0  0  0  0
 36 37  1  0  0  0  0
 37 38  2  0  0  0  0
M  CHG  2   9  -1  13   1
M  END
>  <CdId>
1542

>  <Formula>
C22H30N6O8S2

>  <ID>
T4447

>  <Name>
S-(5'-Adenosyl)-L-methionine tosylate

>  <Synonyms>
SAMe; S-(5'-Adenosyl)-L-methionine p-toluenesulfonate salt

>  <CAS>
52248-03-0

>  <MolWt>
570.64

>  <Pathways>
Others

>  <Target>
Others

>  <Receptor>
Others

$$$$
