SGX-523
 OpenBabel02212023462D

 26 30  0  0  0  0  0  0  0  0999 V2000
   -4.6045    2.0854    0.0000 C   0  0  0  0  0  0  0  0  0  0  0  0
   -4.8595    1.3008    0.0000 C   0  0  0  0  0  0  0  0  0  0  0  0
   -4.3075    0.6877    0.0000 N   0  0  0  0  0  0  0  0  0  0  0  0
   -3.5005    0.8593    0.0000 C   0  0  0  0  0  0  0  0  0  0  0  0
   -3.2455    1.6439    0.0000 C   0  0  0  0  0  0  0  0  0  0  0  0
   -3.7976    2.2570    0.0000 C   0  0  0  0  0  0  0  0  0  0  0  0
   -2.4386    1.8154    0.0000 C   0  0  0  0  0  0  0  0  0  0  0  0
   -1.8865    1.2023    0.0000 C   0  0  0  0  0  0  0  0  0  0  0  0
   -2.1415    0.4177    0.0000 C   0  0  0  0  0  0  0  0  0  0  0  0
   -2.9485    0.2462    0.0000 C   0  0  0  0  0  0  0  0  0  0  0  0
   -1.0796    1.3738    0.0000 S   0  0  0  0  0  0  0  0  0  0  0  0
   -0.8246    2.1585    0.0000 C   0  0  0  0  0  0  0  0  0  0  0  0
   -0.0400    2.4134    0.0000 N   0  0  0  0  0  0  0  0  0  0  0  0
   -0.0400    3.2384    0.0000 C   0  0  0  0  0  0  0  0  0  0  0  0
   -0.8246    3.4933    0.0000 N   0  0  0  0  0  0  0  0  0  0  0  0
   -1.3096    2.8259    0.0000 N   0  0  0  0  0  0  0  0  0  0  0  0
    0.6745    3.6509    0.0000 C   0  0  0  0  0  0  0  0  0  0  0  0
    1.3889    3.2384    0.0000 C   0  0  0  0  0  0  0  0  0  0  0  0
    1.3889    2.4134    0.0000 C   0  0  0  0  0  0  0  0  0  0  0  0
    0.6745    2.0009    0.0000 N   0  0  0  0  0  0  0  0  0  0  0  0
    2.1034    2.0009    0.0000 C   0  0  0  0  0  0  0  0  0  0  0  0
    2.8571    2.3365    0.0000 C   0  0  0  0  0  0  0  0  0  0  0  0
    3.4091    1.7234    0.0000 N   0  0  0  0  0  0  0  0  0  0  0  0
    2.9966    1.0089    0.0000 N   0  0  0  0  0  0  0  0  0  0  0  0
    2.1896    1.1804    0.0000 C   0  0  0  0  0  0  0  0  0  0  0  0
    3.3322    0.2552    0.0000 C   0  0  0  0  0  0  0  0  0  0  0  0
  1  2  2  0  0  0  0
  1  6  1  0  0  0  0
  2  3  1  0  0  0  0
  3  4  2  0  0  0  0
  4  5  1  0  0  0  0
  4 10  1  0  0  0  0
  5  6  2  0  0  0  0
  5  7  1  0  0  0  0
  7  8  2  0  0  0  0
  8  9  1  0  0  0  0
  8 11  1  0  0  0  0
  9 10  2  0  0  0  0
 11 12  1  0  0  0  0
 12 13  1  0  0  0  0
 12 16  2  0  0  0  0
 13 14  1  0  0  0  0
 13 20  1  0  0  0  0
 14 15  2  0  0  0  0
 14 17  1  0  0  0  0
 15 16  1  0  0  0  0
 17 18  2  0  0  0  0
 18 19  1  0  0  0  0
 19 20  2  0  0  0  0
 19 21  1  0  0  0  0
 21 22  1  0  0  0  0
 21 25  2  0  0  0  0
 22 23  2  0  0  0  0
 23 24  1  0  0  0  0
 24 25  1  0  0  0  0
 24 26  1  0  0  0  0
M  END
>  <CdId>
3377

>  <Formula>
C18H13N7S

>  <ID>
T2293

>  <Name>
SGX-523

>  <Synonyms>
SGX 523; SGX-523

>  <CAS>
1022150-57-7

>  <MolWt>
359.41

>  <Pathways>
Angiogenesis; MAPK; Tyrosine Kinase/Adaptors; Cytoskeletal Signaling

>  <Target>
Bcr-Abl inhibitor; c-Met/HGFR inhibitor; p38 MAPK inhibitor; Raf inhibitor

>  <Receptor>
Abl; c-Met; p38¦Á; B-Raf (V599E); C-Raf

$$$$
