Talabostat mesylate
 OpenBabel02212023462D

 20 19  0  0  1  0  0  0  0  0999 V2000
   -1.8057    1.4748    0.0000 O   0  0  0  0  0  0  0  0  0  0  0  0
   -1.0912    1.0623    0.0000 B   0  0  0  0  0  0  0  0  0  0  0  0
   -1.0912    0.2373    0.0000 C   0  0  1  0  0  0  0  0  0  0  0  0
   -0.4238   -0.2476    0.0000 N   0  0  0  0  0  0  0  0  0  0  0  0
    0.3608    0.0073    0.0000 C   0  0  0  0  0  0  0  0  0  0  0  0
    0.5324    0.8143    0.0000 O   0  0  0  0  0  0  0  0  0  0  0  0
    0.9739   -0.5447    0.0000 C   0  0  1  0  0  0  0  0  0  0  0  0
    0.8024   -1.3517    0.0000 N   0  0  0  0  0  0  0  0  0  0  0  0
    1.7586   -0.2898    0.0000 C   0  0  0  0  0  0  0  0  0  0  0  0
    1.9301    0.5172    0.0000 C   0  0  0  0  0  0  0  0  0  0  0  0
    2.3716   -0.8418    0.0000 C   0  0  0  0  0  0  0  0  0  0  0  0
   -0.6787   -1.0323    0.0000 C   0  0  0  0  0  0  0  0  0  0  0  0
   -1.5037   -1.0323    0.0000 C   0  0  0  0  0  0  0  0  0  0  0  0
   -1.7587   -0.2476    0.0000 C   0  0  0  0  0  0  0  0  0  0  0  0
   -0.3768    1.4748    0.0000 O   0  0  0  0  0  0  0  0  0  0  0  0
    5.3181   -0.8250    0.0000 C   0  0  0  0  0  0  0  0  0  0  0  0
    5.3181    0.0000    0.0000 S   0  0  0  0  0  0  0  0  0  0  0  0
    5.3181    0.8250    0.0000 O   0  0  0  0  0  0  0  0  0  0  0  0
    6.1431   -0.0000    0.0000 O   0  0  0  0  0  0  0  0  0  0  0  0
    4.4931    0.0000    0.0000 O   0  0  0  0  0  0  0  0  0  0  0  0
  1  2  1  0  0  0  0
  2 15  1  0  0  0  0
  3  2  1  1  0  0  0
  3  4  1  0  0  0  0
  3 14  1  0  0  0  0
  4  5  1  0  0  0  0
  4 12  1  0  0  0  0
  5  6  2  0  0  0  0
  5  7  1  0  0  0  0
  7  8  1  6  0  0  0
  7  9  1  0  0  0  0
  9 10  1  0  0  0  0
  9 11  1  0  0  0  0
 12 13  1  0  0  0  0
 13 14  1  0  0  0  0
 16 17  1  0  0  0  0
 17 18  2  0  0  0  0
 17 19  2  0  0  0  0
 17 20  1  0  0  0  0
M  END
>  <CdId>
1837

>  <Formula>
C10H23BN2O6S

>  <ID>
T4042

>  <Name>
Talabostat mesylate

>  <Synonyms>
PT100; Val-boroPro

>  <CAS>
150080-09-4

>  <MolWt>
310.18

>  <Pathways>
Proteases/Proteasome

>  <Target>
DPP-4 inhibitor

>  <Receptor>
DPP-4

$$$$
