Taurine
 OpenBabel02212023462D

  7  6  0  0  0  0  0  0  0  0999 V2000
    0.1105   -2.0625    0.0000 N   0  0  0  0  0  0  0  0  0  0  0  0
    0.1105   -1.2375    0.0000 C   0  0  0  0  0  0  0  0  0  0  0  0
    0.8250   -0.8250    0.0000 C   0  0  0  0  0  0  0  0  0  0  0  0
    0.8250    0.0000    0.0000 S   0  0  0  0  0  0  0  0  0  0  0  0
    0.8250    0.8250    0.0000 O   0  0  0  0  0  0  0  0  0  0  0  0
    1.6500   -0.0000    0.0000 O   0  0  0  0  0  0  0  0  0  0  0  0
    0.0000    0.0000    0.0000 O   0  0  0  0  0  0  0  0  0  0  0  0
  1  2  1  0  0  0  0
  2  3  1  0  0  0  0
  3  4  1  0  0  0  0
  4  5  2  0  0  0  0
  4  6  2  0  0  0  0
  4  7  1  0  0  0  0
M  END
>  <CdId>
5352

>  <Formula>
C2H7NO3S

>  <ID>
T0022

>  <Name>
Taurine

>  <Synonyms>
2-Aminoethanesulfonic acid

>  <CAS>
107-35-7

>  <MolWt>
125.15

>  <Pathways>
Metabolism

>  <Target>
LDL inhibitor

>  <Receptor>
LDL; VLDL

$$$$
