TMP269
 OpenBabel02212023462D

 36 40  0  0  0  0  0  0  0  0999 V2000
    1.1620   -3.3553    0.0000 C   0  0  0  0  0  0  0  0  0  0  0  0
    1.8295   -3.8402    0.0000 N   0  0  0  0  0  0  0  0  0  0  0  0
    1.5745   -4.6248    0.0000 C   0  0  0  0  0  0  0  0  0  0  0  0
    0.7495   -4.6248    0.0000 C   0  0  0  0  0  0  0  0  0  0  0  0
    0.4946   -3.8402    0.0000 S   0  0  0  0  0  0  0  0  0  0  0  0
    2.0594   -5.2923    0.0000 C   0  0  0  0  0  0  0  0  0  0  0  0
    2.8799   -5.2060    0.0000 C   0  0  0  0  0  0  0  0  0  0  0  0
    3.3648   -5.8735    0.0000 C   0  0  0  0  0  0  0  0  0  0  0  0
    3.0293   -6.6272    0.0000 C   0  0  0  0  0  0  0  0  0  0  0  0
    2.2088   -6.7134    0.0000 C   0  0  0  0  0  0  0  0  0  0  0  0
    1.7239   -6.0460    0.0000 C   0  0  0  0  0  0  0  0  0  0  0  0
    1.1620   -2.5303    0.0000 C   0  0  0  0  0  0  0  0  0  0  0  0
    0.8798   -1.7551    0.0000 C   0  0  0  0  0  0  0  0  0  0  0  0
    1.4101   -1.1231    0.0000 C   0  0  0  0  0  0  0  0  0  0  0  0
    2.2226   -1.2663    0.0000 O   0  0  0  0  0  0  0  0  0  0  0  0
    2.5048   -2.0416    0.0000 C   0  0  0  0  0  0  0  0  0  0  0  0
    1.9745   -2.6736    0.0000 C   0  0  0  0  0  0  0  0  0  0  0  0
    0.3495   -2.6736    0.0000 C   0  0  0  0  0  0  0  0  0  0  0  0
   -0.1808   -2.0416    0.0000 N   0  0  0  0  0  0  0  0  0  0  0  0
   -0.9932   -2.1848    0.0000 C   0  0  0  0  0  0  0  0  0  0  0  0
   -1.2754   -2.9601    0.0000 O   0  0  0  0  0  0  0  0  0  0  0  0
   -1.5235   -1.5528    0.0000 C   0  0  0  0  0  0  0  0  0  0  0  0
   -2.3360   -1.6961    0.0000 C   0  0  0  0  0  0  0  0  0  0  0  0
   -2.8663   -1.0641    0.0000 C   0  0  0  0  0  0  0  0  0  0  0  0
   -3.6788   -1.2074    0.0000 C   0  0  0  0  0  0  0  0  0  0  0  0
   -4.0404   -1.9489    0.0000 N   0  0  0  0  0  0  0  0  0  0  0  0
   -4.8574   -1.8341    0.0000 C   0  0  0  0  0  0  0  0  0  0  0  0
   -5.4305   -2.4275    0.0000 C   0  0  0  0  0  0  0  0  0  0  0  0
   -6.0036   -3.0210    0.0000 F   0  0  0  0  0  0  0  0  0  0  0  0
   -6.0239   -1.8544    0.0000 F   0  0  0  0  0  0  0  0  0  0  0  0
   -4.8370   -3.0006    0.0000 F   0  0  0  0  0  0  0  0  0  0  0  0
   -5.0006   -1.0216    0.0000 O   0  0  0  0  0  0  0  0  0  0  0  0
   -4.2722   -0.6343    0.0000 N   0  0  0  0  0  0  0  0  0  0  0  0
   -2.5841   -0.2889    0.0000 C   0  0  0  0  0  0  0  0  0  0  0  0
   -1.7717   -0.1456    0.0000 C   0  0  0  0  0  0  0  0  0  0  0  0
   -1.2414   -0.7776    0.0000 C   0  0  0  0  0  0  0  0  0  0  0  0
  1  2  2  0  0  0  0
  1  5  1  0  0  0  0
  1 12  1  0  0  0  0
  2  3  1  0  0  0  0
  3  4  2  0  0  0  0
  3  6  1  0  0  0  0
  4  5  1  0  0  0  0
  6  7  2  0  0  0  0
  6 11  1  0  0  0  0
  7  8  1  0  0  0  0
  8  9  2  0  0  0  0
  9 10  1  0  0  0  0
 10 11  2  0  0  0  0
 12 13  1  0  0  0  0
 12 17  1  0  0  0  0
 12 18  1  0  0  0  0
 13 14  1  0  0  0  0
 14 15  1  0  0  0  0
 15 16  1  0  0  0  0
 16 17  1  0  0  0  0
 18 19  1  0  0  0  0
 19 20  1  0  0  0  0
 20 21  2  0  0  0  0
 20 22  1  0  0  0  0
 22 23  2  0  0  0  0
 22 36  1  0  0  0  0
 23 24  1  0  0  0  0
 24 25  1  0  0  0  0
 24 34  2  0  0  0  0
 25 26  1  0  0  0  0
 25 33  2  0  0  0  0
 26 27  2  0  0  0  0
 27 28  1  0  0  0  0
 27 32  1  0  0  0  0
 28 29  1  0  0  0  0
 28 30  1  0  0  0  0
 28 31  1  0  0  0  0
 32 33  1  0  0  0  0
 34 35  1  0  0  0  0
 35 36  2  0  0  0  0
M  END
>  <CdId>
3767

>  <Formula>
C25H21F3N4O3S

>  <ID>
T1857

>  <Name>
TMP269

>  <CAS>
1314890-29-3

>  <MolWt>
514.52

>  <Pathways>
Chromatin/Epigenetic; DNA Damage/DNA Repair; NF-¦ªb

>  <Target>
HDAC inhibitor

>  <Receptor>
HDAC4; HDAC5; HDAC7; HDAC9

$$$$
