UAMC 00039 dihydrochloride
 OpenBabel02212023462D

 23 22  0  0  1  0  0  0  0  0999 V2000
    0.0000    0.0000    0.0000 Cl  0  0  0  0  0  0  0  0  0  0  0  0
    2.2393    0.0000    0.0000 Cl  0  0  0  0  0  0  0  0  0  0  0  0
    1.1568   -4.1250    0.0000 N   0  0  0  0  0  0  0  0  0  0  0  0
    1.1568   -3.3000    0.0000 C   0  0  1  0  0  0  0  0  0  0  0  0
    0.4423   -2.8875    0.0000 C   0  0  0  0  0  0  0  0  0  0  0  0
   -0.2722   -3.3000    0.0000 C   0  0  0  0  0  0  0  0  0  0  0  0
   -0.9867   -2.8875    0.0000 N   0  0  0  0  0  0  0  0  0  0  0  0
   -1.7011   -3.3000    0.0000 C   0  0  0  0  0  0  0  0  0  0  0  0
   -2.4156   -2.8875    0.0000 C   0  0  0  0  0  0  0  0  0  0  0  0
   -3.1301   -3.3000    0.0000 C   0  0  0  0  0  0  0  0  0  0  0  0
   -3.8445   -2.8875    0.0000 C   0  0  0  0  0  0  0  0  0  0  0  0
   -3.8445   -2.0625    0.0000 C   0  0  0  0  0  0  0  0  0  0  0  0
   -4.5590   -1.6500    0.0000 Cl  0  0  0  0  0  0  0  0  0  0  0  0
   -3.1301   -1.6500    0.0000 C   0  0  0  0  0  0  0  0  0  0  0  0
   -2.4156   -2.0625    0.0000 C   0  0  0  0  0  0  0  0  0  0  0  0
    1.8712   -2.8875    0.0000 C   0  0  0  0  0  0  0  0  0  0  0  0
    1.8712   -2.0625    0.0000 O   0  0  0  0  0  0  0  0  0  0  0  0
    2.5857   -3.3000    0.0000 N   0  0  0  0  0  0  0  0  0  0  0  0
    3.3002   -2.8875    0.0000 C   0  0  0  0  0  0  0  0  0  0  0  0
    4.0146   -3.3000    0.0000 C   0  0  0  0  0  0  0  0  0  0  0  0
    4.0146   -4.1250    0.0000 C   0  0  0  0  0  0  0  0  0  0  0  0
    3.3002   -4.5375    0.0000 C   0  0  0  0  0  0  0  0  0  0  0  0
    2.5857   -4.1250    0.0000 C   0  0  0  0  0  0  0  0  0  0  0  0
  4  3  1  1  0  0  0
  4  5  1  0  0  0  0
  4 16  1  0  0  0  0
  5  6  1  0  0  0  0
  6  7  1  0  0  0  0
  7  8  1  0  0  0  0
  8  9  1  0  0  0  0
  9 10  2  0  0  0  0
  9 15  1  0  0  0  0
 10 11  1  0  0  0  0
 11 12  2  0  0  0  0
 12 13  1  0  0  0  0
 12 14  1  0  0  0  0
 14 15  2  0  0  0  0
 16 17  2  0  0  0  0
 16 18  1  0  0  0  0
 18 19  1  0  0  0  0
 18 23  1  0  0  0  0
 19 20  1  0  0  0  0
 20 21  1  0  0  0  0
 21 22  1  0  0  0  0
 22 23  1  0  0  0  0
M  END
>  <CdId>
1526

>  <Formula>
C16H26Cl3N3O

>  <ID>
T4467

>  <Name>
UAMC 00039 dihydrochloride

>  <CAS>
697797-51-6

>  <MolWt>
382.76

>  <Pathways>
Proteases/Proteasome; Ubiquitination

>  <Target>
Proteasome inhibitor

>  <Receptor>
Dipeptidyl peptidase II

$$$$
