UNC3866
 OpenBabel02212023462D

 57 58  0  0  1  0  0  0  0  0999 V2000
    1.2397    2.1145    0.0000 C   0  0  0  0  0  0  0  0  0  0  0  0
    1.1450    1.2950    0.0000 C   0  0  0  0  0  0  0  0  0  0  0  0
    0.3255    1.3896    0.0000 C   0  0  0  0  0  0  0  0  0  0  0  0
    1.9646    1.2003    0.0000 C   0  0  0  0  0  0  0  0  0  0  0  0
    1.0504    0.4754    0.0000 C   0  0  0  0  0  0  0  0  0  0  0  0
    1.7128   -0.0163    0.0000 C   0  0  0  0  0  0  0  0  0  0  0  0
    1.6182   -0.8359    0.0000 C   0  0  0  0  0  0  0  0  0  0  0  0
    0.8611   -1.1637    0.0000 C   0  0  0  0  0  0  0  0  0  0  0  0
    0.7665   -1.9833    0.0000 C   0  0  0  0  0  0  0  0  0  0  0  0
    0.0094   -2.3111    0.0000 O   0  0  0  0  0  0  0  0  0  0  0  0
    1.4289   -2.4750    0.0000 N   0  0  0  0  0  0  0  0  0  0  0  0
    2.1860   -2.1472    0.0000 C   0  0  1  0  0  0  0  0  0  0  0  0
    2.2806   -1.3276    0.0000 C   0  0  0  0  0  0  0  0  0  0  0  0
    3.0377   -0.9998    0.0000 C   0  0  0  0  0  0  0  0  0  0  0  0
    3.1324   -0.1802    0.0000 C   0  0  0  0  0  0  0  0  0  0  0  0
    3.8894    0.1476    0.0000 C   0  0  0  0  0  0  0  0  0  0  0  0
    4.5519   -0.3442    0.0000 C   0  0  0  0  0  0  0  0  0  0  0  0
    4.4572   -1.1637    0.0000 C   0  0  0  0  0  0  0  0  0  0  0  0
    3.7002   -1.4915    0.0000 C   0  0  0  0  0  0  0  0  0  0  0  0
    2.8485   -2.6389    0.0000 C   0  0  0  0  0  0  0  0  0  0  0  0
    2.7538   -3.4585    0.0000 O   0  0  0  0  0  0  0  0  0  0  0  0
    3.6055   -2.3111    0.0000 N   0  0  0  0  0  0  0  0  0  0  0  0
    4.2680   -2.8028    0.0000 C   0  0  1  0  0  0  0  0  0  0  0  0
    4.1733   -3.6224    0.0000 C   0  0  0  0  0  0  0  0  0  0  0  0
    5.0250   -2.4750    0.0000 C   0  0  0  0  0  0  0  0  0  0  0  0
    5.1197   -1.6554    0.0000 O   0  0  0  0  0  0  0  0  0  0  0  0
    5.6875   -2.9667    0.0000 N   0  0  0  0  0  0  0  0  0  0  0  0
    6.4445   -2.6389    0.0000 C   0  0  1  0  0  0  0  0  0  0  0  0
    6.5392   -1.8194    0.0000 C   0  0  0  0  0  0  0  0  0  0  0  0
    7.2962   -1.4915    0.0000 C   0  0  0  0  0  0  0  0  0  0  0  0
    7.3909   -0.6720    0.0000 C   0  0  0  0  0  0  0  0  0  0  0  0
    7.9587   -1.9833    0.0000 C   0  0  0  0  0  0  0  0  0  0  0  0
    7.1070   -3.1306    0.0000 C   0  0  0  0  0  0  0  0  0  0  0  0
    7.0123   -3.9502    0.0000 O   0  0  0  0  0  0  0  0  0  0  0  0
    7.8641   -2.8028    0.0000 N   0  0  0  0  0  0  0  0  0  0  0  0
    8.5265   -3.2946    0.0000 C   0  0  1  0  0  0  0  0  0  0  0  0
    9.2836   -2.9667    0.0000 C   0  0  0  0  0  0  0  0  0  0  0  0
    9.9460   -3.4585    0.0000 C   0  0  0  0  0  0  0  0  0  0  0  0
   10.7031   -3.1306    0.0000 C   0  0  0  0  0  0  0  0  0  0  0  0
   11.3655   -3.6224    0.0000 C   0  0  0  0  0  0  0  0  0  0  0  0
   12.1226   -3.2946    0.0000 N   0  0  0  0  0  0  0  0  0  0  0  0
   12.7850   -3.7863    0.0000 C   0  0  0  0  0  0  0  0  0  0  0  0
   13.5421   -3.4585    0.0000 C   0  0  0  0  0  0  0  0  0  0  0  0
   12.2172   -2.4750    0.0000 C   0  0  0  0  0  0  0  0  0  0  0  0
   12.9743   -2.1472    0.0000 C   0  0  0  0  0  0  0  0  0  0  0  0
    8.4319   -4.1141    0.0000 C   0  0  0  0  0  0  0  0  0  0  0  0
    9.0943   -4.6058    0.0000 O   0  0  0  0  0  0  0  0  0  0  0  0
    7.6748   -4.4419    0.0000 N   0  0  0  0  0  0  0  0  0  0  0  0
    7.5802   -5.2615    0.0000 C   0  0  1  0  0  0  0  0  0  0  0  0
    8.2426   -5.7532    0.0000 C   0  0  0  0  0  0  0  0  0  0  0  0
    8.1480   -6.5728    0.0000 O   0  0  0  0  0  0  0  0  0  0  0  0
    6.8231   -5.5893    0.0000 C   0  0  0  0  0  0  0  0  0  0  0  0
    6.1606   -5.0976    0.0000 O   0  0  0  0  0  0  0  0  0  0  0  0
    6.7284   -6.4089    0.0000 O   0  0  0  0  0  0  0  0  0  0  0  0
    5.9714   -6.7367    0.0000 C   0  0  0  0  0  0  0  0  0  0  0  0
    0.1987   -0.6720    0.0000 C   0  0  0  0  0  0  0  0  0  0  0  0
    0.2933    0.1476    0.0000 C   0  0  0  0  0  0  0  0  0  0  0  0
  1  2  1  0  0  0  0
  2  3  1  0  0  0  0
  2  4  1  0  0  0  0
  2  5  1  0  0  0  0
  5  6  2  0  0  0  0
  5 57  1  0  0  0  0
  6  7  1  0  0  0  0
  7  8  2  0  0  0  0
  8  9  1  0  0  0  0
  8 56  1  0  0  0  0
  9 10  2  0  0  0  0
  9 11  1  0  0  0  0
 12 11  1  0  0  0  0
 12 13  1  1  0  0  0
 12 20  1  0  0  0  0
 13 14  1  0  0  0  0
 14 15  2  0  0  0  0
 14 19  1  0  0  0  0
 15 16  1  0  0  0  0
 16 17  2  0  0  0  0
 17 18  1  0  0  0  0
 18 19  2  0  0  0  0
 20 21  2  0  0  0  0
 20 22  1  0  0  0  0
 22 23  1  0  0  0  0
 23 24  1  6  0  0  0
 23 25  1  0  0  0  0
 25 26  2  0  0  0  0
 25 27  1  0  0  0  0
 28 27  1  0  0  0  0
 28 29  1  1  0  0  0
 28 33  1  0  0  0  0
 29 30  1  0  0  0  0
 30 31  1  0  0  0  0
 30 32  1  0  0  0  0
 33 34  2  0  0  0  0
 33 35  1  0  0  0  0
 36 35  1  0  0  0  0
 36 37  1  1  0  0  0
 36 46  1  0  0  0  0
 37 38  1  0  0  0  0
 38 39  1  0  0  0  0
 39 40  1  0  0  0  0
 40 41  1  0  0  0  0
 41 42  1  0  0  0  0
 41 44  1  0  0  0  0
 42 43  1  0  0  0  0
 44 45  1  0  0  0  0
 46 47  2  0  0  0  0
 46 48  1  0  0  0  0
 49 48  1  0  0  0  0
 49 50  1  1  0  0  0
 49 52  1  0  0  0  0
 50 51  1  0  0  0  0
 52 53  2  0  0  0  0
 52 54  1  0  0  0  0
 54 55  1  0  0  0  0
 56 57  2  0  0  0  0
M  END
>  <CdId>
1857

>  <Formula>
C43H66N6O8

>  <ID>
T4021

>  <Name>
UNC3866

>  <CAS>
1872382-47-2

>  <MolWt>
795.02

>  <Pathways>
Chromatin/Epigenetic

>  <Target>
Histone Methyltransferase antagonist

>  <Receptor>
CBX7-H3

$$$$
