Valganciclovir hydrochloride
 OpenBabel02212023462D

 26 26  0  0  1  0  0  0  0  0999 V2000
   -3.8507    0.3936    0.0000 N   0  0  0  0  0  0  0  0  0  0  0  0
   -3.2987    1.0067    0.0000 C   0  0  3  0  0  0  0  0  0  0  0  0
   -2.4917    0.8352    0.0000 N   0  0  0  0  0  0  0  0  0  0  0  0
   -2.2368    0.0506    0.0000 C   0  0  3  0  0  0  0  0  0  0  0  0
   -2.7888   -0.5625    0.0000 C   0  0  3  0  0  0  0  0  0  0  0  0
   -3.5958   -0.3910    0.0000 C   0  0  0  0  0  0  0  0  0  0  0  0
   -4.1478   -1.0041    0.0000 O   0  0  0  0  0  0  0  0  0  0  0  0
   -2.3763   -1.2770    0.0000 N   0  0  0  0  0  0  0  0  0  0  0  0
   -1.5693   -1.1055    0.0000 C   0  0  0  0  0  0  0  0  0  0  0  0
   -1.4831   -0.2850    0.0000 N   0  0  0  0  0  0  0  0  0  0  0  0
   -0.7686    0.1275    0.0000 C   0  0  0  0  0  0  0  0  0  0  0  0
   -0.0542   -0.2850    0.0000 O   0  0  0  0  0  0  0  0  0  0  0  0
    0.6603    0.1275    0.0000 C   0  0  3  0  0  0  0  0  0  0  0  0
    1.3748   -0.2850    0.0000 C   0  0  0  0  0  0  0  0  0  0  0  0
    2.0892    0.1275    0.0000 O   0  0  0  0  0  0  0  0  0  0  0  0
    2.8037   -0.2850    0.0000 C   0  0  0  0  0  0  0  0  0  0  0  0
    2.8037   -1.1100    0.0000 O   0  0  0  0  0  0  0  0  0  0  0  0
    3.5182    0.1275    0.0000 C   0  0  2  0  0  0  0  0  0  0  0  0
    4.2327   -0.2850    0.0000 C   0  0  0  0  0  0  0  0  0  0  0  0
    4.9471    0.1275    0.0000 C   0  0  0  0  0  0  0  0  0  0  0  0
    4.2327   -1.1100    0.0000 C   0  0  0  0  0  0  0  0  0  0  0  0
    3.5182    0.9525    0.0000 N   0  0  0  0  0  0  0  0  0  0  0  0
    0.6603    0.9525    0.0000 C   0  0  0  0  0  0  0  0  0  0  0  0
    1.3748    1.3650    0.0000 O   0  0  0  0  0  0  0  0  0  0  0  0
   -3.5536    1.7913    0.0000 N   0  0  0  0  0  0  0  0  0  0  0  0
    7.1864    0.0000    0.0000 Cl  0  0  0  0  0  0  0  0  0  0  0  0
  1  2  1  0  0  0  0
  1  6  1  0  0  0  0
  2  3  1  0  0  0  0
  2 25  1  0  0  0  0
  3  4  1  0  0  0  0
  4  5  1  0  0  0  0
  4 10  1  0  0  0  0
  5  6  1  0  0  0  0
  5  8  1  0  0  0  0
  6  7  2  0  0  0  0
  8  9  1  0  0  0  0
  9 10  1  0  0  0  0
 10 11  1  0  0  0  0
 11 12  1  0  0  0  0
 12 13  1  0  0  0  0
 13 14  1  0  0  0  0
 13 23  1  0  0  0  0
 14 15  1  0  0  0  0
 15 16  1  0  0  0  0
 16 17  2  0  0  0  0
 16 18  1  0  0  0  0
 18 19  1  0  0  0  0
 18 22  1  1  0  0  0
 19 20  1  0  0  0  0
 19 21  1  0  0  0  0
 23 24  1  0  0  0  0
M  END
>  <CdId>
871

>  <Mol Weight>
390.823

>  <Formula>
C14H23ClN6O5

>  <ID>
T1533

>  <Name>
Valganciclovir hydrochloride

>  <Synonyms>
Valcyte;Valcyt

>  <CAS>
175865-59-5

>  <Approved status>
FDA

>  <Disease>
Immune system

>  <Indication>
Cytomegalovirus Infections

>  <Pathways>
Others

>  <Target>
Others

>  <Receptor>
CMV

$$$$
