Vildagliptin
 OpenBabel02212023462D

 22 25  0  0  1  0  0  0  0  0999 V2000
   -0.6634   -4.9562    0.0000 C   0  0  0  0  0  0  0  0  0  0  0  0
   -1.4704   -5.1277    0.0000 C   0  0  0  0  0  0  0  0  0  0  0  0
   -1.8829   -4.4133    0.0000 C   0  0  0  0  0  0  0  0  0  0  0  0
   -1.3308   -3.8002    0.0000 C   0  0  2  0  0  0  0  0  0  0  0  0
   -1.5024   -2.9932    0.0000 C   0  0  0  0  0  0  0  0  0  0  0  0
   -1.6739   -2.1862    0.0000 N   0  0  0  0  0  0  0  0  0  0  0  0
   -0.5772   -4.1357    0.0000 N   0  0  0  0  0  0  0  0  0  0  0  0
    0.1373   -3.7232    0.0000 C   0  0  0  0  0  0  0  0  0  0  0  0
    0.8518   -4.1357    0.0000 O   0  0  0  0  0  0  0  0  0  0  0  0
    0.1373   -2.8982    0.0000 C   0  0  0  0  0  0  0  0  0  0  0  0
    0.8518   -2.4857    0.0000 N   0  0  0  0  0  0  0  0  0  0  0  0
    0.8518   -1.6607    0.0000 C   0  0  3  0  0  0  0  0  0  0  0  0
    0.1179   -2.0304    0.0000 C   0  0  0  0  0  0  0  0  0  0  0  0
    0.5679   -1.2429    0.0000 C   0  0  3  0  0  0  0  0  0  0  0  0
    1.3018   -1.6179    0.0000 C   0  0  0  0  0  0  0  0  0  0  0  0
    2.0357   -1.2429    0.0000 C   0  0  3  0  0  0  0  0  0  0  0  0
    1.5857   -2.0304    0.0000 C   0  0  0  0  0  0  0  0  0  0  0  0
    2.8331   -1.4546    0.0000 O   0  0  0  0  0  0  0  0  0  0  0  0
    2.0357   -0.4929    0.0000 C   0  0  0  0  0  0  0  0  0  0  0  0
    1.3018   -0.1232    0.0000 C   0  0  3  0  0  0  0  0  0  0  0  0
    0.8518   -0.9107    0.0000 C   0  0  0  0  0  0  0  0  0  0  0  0
    0.5679   -0.4929    0.0000 C   0  0  0  0  0  0  0  0  0  0  0  0
  1  2  1  0  0  0  0
  1  7  1  0  0  0  0
  2  3  1  0  0  0  0
  3  4  1  0  0  0  0
  4  5  1  6  0  0  0
  4  7  1  0  0  0  0
  5  6  3  0  0  0  0
  7  8  1  0  0  0  0
  8  9  2  0  0  0  0
  8 10  1  0  0  0  0
 10 11  1  0  0  0  0
 11 12  1  0  0  0  0
 12 13  1  0  0  0  0
 12 17  1  0  0  0  0
 12 21  1  0  0  0  0
 13 14  1  0  0  0  0
 14 15  1  0  0  0  0
 14 22  1  0  0  0  0
 15 16  1  0  0  0  0
 16 17  1  0  0  0  0
 16 18  1  0  0  0  0
 16 19  1  0  0  0  0
 19 20  1  0  0  0  0
 20 21  1  0  0  0  0
 20 22  1  0  0  0  0
M  END
>  <CdId>
1914

>  <Mol Weight>
303.3993

>  <Formula>
C17H25N3O2

>  <ID>
T1502

>  <Name>
Vildagliptin

>  <Synonyms>
LAF237;NVP-LAF 237

>  <CAS>
274901-16-5

>  <Approved status>
PMDA

>  <Disease>
Metabolism

>  <Indication>
Type 2 Diabetes Mellitus

>  <Pathways>
Proteases/Proteasome

>  <Target>
DPP-4 inhibitor

>  <Receptor>
DPP-4

$$$$
