@<TRIPOS>MOLECULE
4uxq_lig.pdb
   66    70     1     0     0
SMALL
bcc


@<TRIPOS>ATOM
      1 N1           2.9280    -0.9870     6.5170 nc      1752 0LI      -0.260600
      2 N3          -1.1290    -3.2240    21.9190 n3      1752 0LI      -0.732600
      3 C4           1.3100    -3.7980    10.0600 cg      1752 0LI      -0.083000
      4 C5           0.5840    -4.4930    11.0730 ca      1752 0LI       0.017000
      5 C6          -0.1620    -5.6410    10.8280 ca      1752 0LI      -0.023300
      6 C7          -0.8450    -6.2510    11.8660 ca      1752 0LI      -0.143000
      7 C8          -0.7580    -5.7500    13.1510 ca      1752 0LI      -0.094000
      8 C10          0.6510    -3.9710    12.3460 ca      1752 0LI      -0.052000
      9 C13         -0.9380    -3.8660    16.9090 ca      1752 0LI       0.066600
     10 C15         -1.3280    -4.2080    19.2150 ca      1752 0LI      -0.094000
     11 C17         -1.1570    -1.9670    18.3820 ca      1752 0LI      -0.139300
     12 C20         -1.5710    -2.3360    20.8320 c3      1752 0LI       0.203100
     13 C21          0.3010    -3.0080    22.2200 c3      1752 0LI       0.164800
     14 C22          0.6500    -4.0100    23.2870 c3      1752 0LI       0.168800
     15 C24         -2.1180    -3.1550    23.0330 c3      1752 0LI       0.164800
     16 C81          5.3440    -1.4890     6.3130 cc      1752 0LI      -0.043000
     17 C82          6.3430    -2.2080     6.8350 cd      1752 0LI      -0.238300
     18 C83          5.9620    -3.0930     7.9470 cd      1752 0LI       0.357200
     19 N81          4.7760    -3.2550     8.4480 nc      1752 0LI      -0.452800
     20 N82          3.8590    -2.4990     7.8560 na      1752 0LI       0.177200
     21 C84          4.0460    -1.6050     6.8380 cc      1752 0LI      -0.067300
     22 C1           1.9840    -1.5000     7.3660 cc      1752 0LI       0.042600
     23 C2           2.5460    -2.4440     8.1990 cd      1752 0LI       0.008200
     24 C3           1.9040    -3.2000     9.2090 ch      1752 0LI      -0.101300
     25 C9          -0.0100    -4.6100    13.3690 ca      1752 0LI      -0.158600
     26 C11         -0.2300    -6.2350     9.4570 c3      1752 0LI      -0.066800
     27 C12          0.0990    -3.9680    14.6820 c       1752 0LI       0.682700
     28 O1           0.9150    -3.0650    14.7990 o       1752 0LI      -0.573100
     29 N2          -0.7730    -4.4400    15.6350 n       1752 0LI      -0.471100
     30 C14         -1.1070    -4.7320    17.9640 ca      1752 0LI      -0.163000
     31 C16         -1.3510    -2.8420    19.4390 ca      1752 0LI      -0.057300
     32 C18         -0.9660    -2.4990    17.1180 ca      1752 0LI      -0.118000
     33 C19         -1.1670    -0.4690    18.5630 c3      1752 0LI       0.686200
     34 F1          -0.9870     0.1800    17.3880 f       1752 0LI      -0.237300
     35 F2          -2.2980     0.0510    19.1430 f       1752 0LI      -0.237300
     36 F3          -0.1470    -0.0270    19.3390 f       1752 0LI      -0.237300
     37 C23         -1.6400    -3.9270    24.2580 c3      1752 0LI       0.168800
     38 C25          0.3200    -4.3240    25.6810 c3      1752 0LI       0.158100
     39 N4          -0.1920    -3.6560    24.4640 n3      1752 0LI      -0.732600
     40 H7          -1.4500    -7.1240    11.6700 ha      1752 0LI       0.141000
     41 H8          -1.2650    -6.2410    13.9690 ha      1752 0LI       0.139000
     42 H10          1.2160    -3.0710    12.5380 ha      1752 0LI       0.163000
     43 H15         -1.4880    -4.8800    20.0450 ha      1752 0LI       0.161000
     44 H201        -1.0340    -1.3930    20.9330 h1      1752 0LI       0.055200
     45 H202        -2.6390    -2.1610    20.9580 h1      1752 0LI       0.055200
     46 H211         0.4630    -1.9930    22.5840 h1      1752 0LI       0.042200
     47 H212         0.9060    -3.1760    21.3290 h1      1752 0LI       0.042200
     48 H221         1.7080    -3.9410    23.5420 h1      1752 0LI       0.036200
     49 H222         0.4230    -5.0210    22.9480 h1      1752 0LI       0.036200
     50 H241        -3.0630    -3.5800    22.6940 h1      1752 0LI       0.042200
     51 H242        -2.2670    -2.1110    23.3090 h1      1752 0LI       0.042200
     52 H81          5.5350    -0.8190     5.4880 ha      1752 0LI       0.171000
     53 H82          7.3560    -2.1440     6.4670 ha      1752 0LI       0.158000
     54 H83          6.7560    -3.6710     8.3950 h4      1752 0LI       0.044100
     55 H1           0.9450    -1.2060     7.3810 h4      1752 0LI       0.194000
     56 H111         0.3610    -5.6300     8.7690 hc      1752 0LI       0.056367
     57 H112        -1.2670    -6.2570     9.1220 hc      1752 0LI       0.056367
     58 H113         0.1660    -7.2500     9.4810 hc      1752 0LI       0.056367
     59 H2          -1.3310    -5.2500    15.4060 hn      1752 0LI       0.321500
     60 H14         -1.0670    -5.8010    17.8130 ha      1752 0LI       0.135000
     61 H18         -0.8360    -1.8330    16.2780 ha      1752 0LI       0.191000
     62 H231        -1.7940    -4.9950    24.1010 h1      1752 0LI       0.036200
     63 H232        -2.2010    -3.6050    25.1350 h1      1752 0LI       0.036200
     64 H251         1.3810    -4.1030    25.7980 h1      1752 0LI       0.032033
     65 H252         0.1810    -5.4010    25.5900 h1      1752 0LI       0.032033
     66 H253        -0.2250    -3.9600    26.5520 h1      1752 0LI       0.032033
@<TRIPOS>BOND
     1    52    16 1   
     2    16    17 2   
     3    16    21 1   
     4    53    17 1   
     5     1    21 2   
     6     1    22 1   
     7    17    18 1   
     8    21    20 1   
     9    22    55 1   
    10    22    23 2   
    11    20    23 1   
    12    20    19 1   
    13    18    54 1   
    14    18    19 2   
    15    23    24 1   
    16    56    26 1   
    17    57    26 1   
    18    24     3 3   
    19    26    58 1   
    20    26     5 1   
    21     3     4 1   
    22     5     4 ar  
    23     5     6 ar  
    24     4     8 ar  
    25    40     6 1   
    26     6     7 ar  
    27     8    42 1   
    28     8    25 ar  
    29     7    25 ar  
    30     7    41 1   
    31    25    27 1   
    32    27    28 2   
    33    27    29 1   
    34    59    29 1   
    35    29     9 1   
    36    61    32 1   
    37     9    32 ar  
    38     9    30 ar  
    39    32    11 ar  
    40    34    33 1   
    41    60    30 1   
    42    30    10 ar  
    43    11    33 1   
    44    11    31 ar  
    45    33    35 1   
    46    33    36 1   
    47    10    31 ar  
    48    10    43 1   
    49    31    12 1   
    50    12    44 1   
    51    12    45 1   
    52    12     2 1   
    53    47    13 1   
    54     2    13 1   
    55     2    15 1   
    56    13    46 1   
    57    13    14 1   
    58    50    15 1   
    59    49    14 1   
    60    15    51 1   
    61    15    37 1   
    62    14    48 1   
    63    14    39 1   
    64    62    37 1   
    65    37    39 1   
    66    37    63 1   
    67    39    38 1   
    68    65    38 1   
    69    38    64 1   
    70    38    66 1   
@<TRIPOS>SUBSTRUCTURE
     1 0LI         1 TEMP              0 ****  ****    0 ROOT
