MODEL 1
REMARK VINA RESULT:      -3.4      0.000      0.000
REMARK  2 active torsions:
REMARK  status: ('A' for Active; 'I' for Inactive)
REMARK    1  A    between atoms: C_3  and  C_4 
REMARK    2  A    between atoms: C_4  and  C_5 
ROOT
ATOM      1  N   UNL d   1      58.462  72.767  84.635  0.00  0.00    -0.086 N 
ATOM      2  C   UNL d   1      57.287  72.608  83.795  0.00  0.00     0.072 C 
ATOM      3  C   UNL d   1      56.048  72.441  82.910  0.00  0.00     0.010 C 
ENDROOT
BRANCH   3   4
ATOM      4  C   UNL d   1      54.809  72.273  82.025  0.00  0.00     0.020 C 
BRANCH   4   5
ATOM      5  C   UNL d   1      53.590  72.109  81.154  0.00  0.00     0.259 C 
ATOM      6  O   UNL d   1      52.564  72.757  81.512  0.00  0.00    -0.637 OA
ATOM      7  O   UNL d   1      53.723  71.341  80.157  0.00  0.00    -0.637 OA
ENDBRANCH   4   5
ENDBRANCH   3   4
TORSDOF 2
ENDMDL
MODEL 2
REMARK VINA RESULT:      -3.2     29.557     30.788
REMARK  2 active torsions:
REMARK  status: ('A' for Active; 'I' for Inactive)
REMARK    1  A    between atoms: C_3  and  C_4 
REMARK    2  A    between atoms: C_4  and  C_5 
ROOT
ATOM      1  N   UNL d   1      73.168  90.711 104.932  0.00  0.00    -0.086 N 
ATOM      2  C   UNL d   1      72.976  90.076 103.639  0.00  0.00     0.072 C 
ATOM      3  C   UNL d   1      72.774  89.407 102.276  0.00  0.00     0.010 C 
ENDROOT
BRANCH   3   4
ATOM      4  C   UNL d   1      72.572  88.737 100.914  0.00  0.00     0.020 C 
BRANCH   4   5
ATOM      5  C   UNL d   1      72.374  88.078  99.572  0.00  0.00     0.259 C 
ATOM      6  O   UNL d   1      73.426  87.688  98.988  0.00  0.00    -0.637 OA
ATOM      7  O   UNL d   1      71.177  87.984  99.175  0.00  0.00    -0.637 OA
ENDBRANCH   4   5
ENDBRANCH   3   4
TORSDOF 2
ENDMDL
MODEL 3
REMARK VINA RESULT:      -3.2     20.960     21.836
REMARK  2 active torsions:
REMARK  status: ('A' for Active; 'I' for Inactive)
REMARK    1  A    between atoms: C_3  and  C_4 
REMARK    2  A    between atoms: C_4  and  C_5 
ROOT
ATOM      1  N   UNL d   1      78.336  67.632  86.320  0.00  0.00    -0.086 N 
ATOM      2  C   UNL d   1      77.370  68.315  87.163  0.00  0.00     0.072 C 
ATOM      3  C   UNL d   1      76.350  69.034  88.052  0.00  0.00     0.010 C 
ENDROOT
BRANCH   3   4
ATOM      4  C   UNL d   1      75.331  69.754  88.941  0.00  0.00     0.020 C 
BRANCH   4   5
ATOM      5  C   UNL d   1      74.327  70.461  89.815  0.00  0.00     0.259 C 
ATOM      6  O   UNL d   1      74.721  71.540  90.345  0.00  0.00    -0.637 OA
ATOM      7  O   UNL d   1      73.198  69.900  89.925  0.00  0.00    -0.637 OA
ENDBRANCH   4   5
ENDBRANCH   3   4
TORSDOF 2
ENDMDL
MODEL 4
REMARK VINA RESULT:      -3.2     22.126     23.229
REMARK  2 active torsions:
REMARK  status: ('A' for Active; 'I' for Inactive)
REMARK    1  A    between atoms: C_3  and  C_4 
REMARK    2  A    between atoms: C_4  and  C_5 
ROOT
ATOM      1  N   UNL d   1      79.815  64.910  88.952  0.00  0.00    -0.086 N 
ATOM      2  C   UNL d   1      78.873  65.912  88.482  0.00  0.00     0.072 C 
ATOM      3  C   UNL d   1      77.880  66.968  87.986  0.00  0.00     0.010 C 
ENDROOT
BRANCH   3   4
ATOM      4  C   UNL d   1      76.887  68.024  87.490  0.00  0.00     0.020 C 
BRANCH   4   5
ATOM      5  C   UNL d   1      75.910  69.063  87.002  0.00  0.00     0.259 C 
ATOM      6  O   UNL d   1      76.028  69.406  85.790  0.00  0.00    -0.637 OA
ATOM      7  O   UNL d   1      75.076  69.481  87.857  0.00  0.00    -0.637 OA
ENDBRANCH   4   5
ENDBRANCH   3   4
TORSDOF 2
ENDMDL
MODEL 5
REMARK VINA RESULT:      -3.0     21.222     22.302
REMARK  2 active torsions:
REMARK  status: ('A' for Active; 'I' for Inactive)
REMARK    1  A    between atoms: C_3  and  C_4 
REMARK    2  A    between atoms: C_4  and  C_5 
ROOT
ATOM      1  N   UNL d   1      65.522  85.703  91.420  0.00  0.00    -0.086 N 
ATOM      2  C   UNL d   1      65.214  87.092  91.715  0.00  0.00     0.072 C 
ATOM      3  C   UNL d   1      64.890  88.556  92.026  0.00  0.00     0.010 C 
ENDROOT
BRANCH   3   4
ATOM      4  C   UNL d   1      64.565  90.021  92.338  0.00  0.00     0.020 C 
BRANCH   4   5
ATOM      5  C   UNL d   1      64.245  91.462  92.644  0.00  0.00     0.259 C 
ATOM      6  O   UNL d   1      63.148  91.893  92.186  0.00  0.00    -0.637 OA
ATOM      7  O   UNL d   1      65.108  92.085  93.327  0.00  0.00    -0.637 OA
ENDBRANCH   4   5
ENDBRANCH   3   4
TORSDOF 2
ENDMDL
MODEL 6
REMARK VINA RESULT:      -3.0     31.679     31.928
REMARK  2 active torsions:
REMARK  status: ('A' for Active; 'I' for Inactive)
REMARK    1  A    between atoms: C_3  and  C_4 
REMARK    2  A    between atoms: C_4  and  C_5 
ROOT
ATOM      1  N   UNL d   1      84.386  80.739  94.037  0.00  0.00    -0.086 N 
ATOM      2  C   UNL d   1      83.436  81.200  95.034  0.00  0.00     0.072 C 
ATOM      3  C   UNL d   1      82.434  81.685  96.086  0.00  0.00     0.010 C 
ENDROOT
BRANCH   3   4
ATOM      4  C   UNL d   1      81.431  82.171  97.138  0.00  0.00     0.020 C 
BRANCH   4   5
ATOM      5  C   UNL d   1      80.445  82.649  98.174  0.00  0.00     0.259 C 
ATOM      6  O   UNL d   1      79.806  83.701  97.883  0.00  0.00    -0.637 OA
ATOM      7  O   UNL d   1      80.362  81.946  99.222  0.00  0.00    -0.637 OA
ENDBRANCH   4   5
ENDBRANCH   3   4
TORSDOF 2
ENDMDL
MODEL 7
REMARK VINA RESULT:      -3.0     22.665     23.117
REMARK  2 active torsions:
REMARK  status: ('A' for Active; 'I' for Inactive)
REMARK    1  A    between atoms: C_3  and  C_4 
REMARK    2  A    between atoms: C_4  and  C_5 
ROOT
ATOM      1  N   UNL d   1      75.830  72.682  89.335  0.00  0.00    -0.086 N 
ATOM      2  C   UNL d   1      76.310  71.415  88.812  0.00  0.00     0.072 C 
ATOM      3  C   UNL d   1      76.816  70.078  88.260  0.00  0.00     0.010 C 
ENDROOT
BRANCH   3   4
ATOM      4  C   UNL d   1      77.322  68.742  87.708  0.00  0.00     0.020 C 
BRANCH   4   5
ATOM      5  C   UNL d   1      77.819  67.426  87.165  0.00  0.00     0.259 C 
ATOM      6  O   UNL d   1      77.518  66.400  87.842  0.00  0.00    -0.637 OA
ATOM      7  O   UNL d   1      78.484  67.488  86.091  0.00  0.00    -0.637 OA
ENDBRANCH   4   5
ENDBRANCH   3   4
TORSDOF 2
ENDMDL
MODEL 8
REMARK VINA RESULT:      -3.0     23.392     24.609
REMARK  2 active torsions:
REMARK  status: ('A' for Active; 'I' for Inactive)
REMARK    1  A    between atoms: C_3  and  C_4 
REMARK    2  A    between atoms: C_4  and  C_5 
ROOT
ATOM      1  N   UNL d   1      75.825  69.657  86.130  0.00  0.00    -0.086 N 
ATOM      2  C   UNL d   1      76.652  68.641  86.757  0.00  0.00     0.072 C 
ATOM      3  C   UNL d   1      77.524  67.569  87.418  0.00  0.00     0.010 C 
ENDROOT
BRANCH   3   4
ATOM      4  C   UNL d   1      78.396  66.497  88.079  0.00  0.00     0.020 C 
BRANCH   4   5
ATOM      5  C   UNL d   1      79.254  65.442  88.730  0.00  0.00     0.259 C 
ATOM      6  O   UNL d   1      78.996  64.245  88.409  0.00  0.00    -0.637 OA
ATOM      7  O   UNL d   1      80.140  65.866  89.528  0.00  0.00    -0.637 OA
ENDBRANCH   4   5
ENDBRANCH   3   4
TORSDOF 2
ENDMDL
MODEL 9
REMARK VINA RESULT:      -2.9     23.063     23.957
REMARK  2 active torsions:
REMARK  status: ('A' for Active; 'I' for Inactive)
REMARK    1  A    between atoms: C_3  and  C_4 
REMARK    2  A    between atoms: C_4  and  C_5 
ROOT
ATOM      1  N   UNL d   1      79.526  63.396  88.981  0.00  0.00    -0.086 N 
ATOM      2  C   UNL d   1      78.850  64.625  88.601  0.00  0.00     0.072 C 
ATOM      3  C   UNL d   1      78.138  65.921  88.201  0.00  0.00     0.010 C 
ENDROOT
BRANCH   3   4
ATOM      4  C   UNL d   1      77.426  67.217  87.800  0.00  0.00     0.020 C 
BRANCH   4   5
ATOM      5  C   UNL d   1      76.725  68.492  87.406  0.00  0.00     0.259 C 
ATOM      6  O   UNL d   1      76.751  68.778  86.175  0.00  0.00    -0.637 OA
ATOM      7  O   UNL d   1      76.186  69.140  88.350  0.00  0.00    -0.637 OA
ENDBRANCH   4   5
ENDBRANCH   3   4
TORSDOF 2
ENDMDL
MODEL 10
REMARK VINA RESULT:      -2.8     23.238     23.906
REMARK  2 active torsions:
REMARK  status: ('A' for Active; 'I' for Inactive)
REMARK    1  A    between atoms: C_3  and  C_4 
REMARK    2  A    between atoms: C_4  and  C_5 
ROOT
ATOM      1  N   UNL d   1      77.864  67.466  92.645  0.00  0.00    -0.086 N 
ATOM      2  C   UNL d   1      77.804  67.619  91.201  0.00  0.00     0.072 C 
ATOM      3  C   UNL d   1      77.739  67.780  89.679  0.00  0.00     0.010 C 
ENDROOT
BRANCH   3   4
ATOM      4  C   UNL d   1      77.675  67.941  88.157  0.00  0.00     0.020 C 
BRANCH   4   5
ATOM      5  C   UNL d   1      77.611  68.100  86.659  0.00  0.00     0.259 C 
ATOM      6  O   UNL d   1      78.490  67.473  85.999  0.00  0.00    -0.637 OA
ATOM      7  O   UNL d   1      76.686  68.844  86.222  0.00  0.00    -0.637 OA
ENDBRANCH   4   5
ENDBRANCH   3   4
TORSDOF 2
ENDMDL
MODEL 11
REMARK VINA RESULT:      -2.8     31.638     32.272
REMARK  2 active torsions:
REMARK  status: ('A' for Active; 'I' for Inactive)
REMARK    1  A    between atoms: C_3  and  C_4 
REMARK    2  A    between atoms: C_4  and  C_5 
ROOT
ATOM      1  N   UNL d   1      83.815  76.483  94.171  0.00  0.00    -0.086 N 
ATOM      2  C   UNL d   1      83.618  77.821  94.701  0.00  0.00     0.072 C 
ATOM      3  C   UNL d   1      83.411  79.232  95.260  0.00  0.00     0.010 C 
ENDROOT
BRANCH   3   4
ATOM      4  C   UNL d   1      83.203  80.643  95.819  0.00  0.00     0.020 C 
BRANCH   4   5
ATOM      5  C   UNL d   1      82.999  82.032  96.369  0.00  0.00     0.259 C 
ATOM      6  O   UNL d   1      83.789  82.382  97.293  0.00  0.00    -0.637 OA
ATOM      7  O   UNL d   1      82.059  82.699  95.847  0.00  0.00    -0.637 OA
ENDBRANCH   4   5
ENDBRANCH   3   4
TORSDOF 2
ENDMDL
MODEL 12
REMARK VINA RESULT:      -2.8     23.870     24.228
REMARK  2 active torsions:
REMARK  status: ('A' for Active; 'I' for Inactive)
REMARK    1  A    between atoms: C_3  and  C_4 
REMARK    2  A    between atoms: C_4  and  C_5 
ROOT
ATOM      1  N   UNL d   1      65.214  73.888 103.574  0.00  0.00    -0.086 N 
ATOM      2  C   UNL d   1      66.077  72.763 103.256  0.00  0.00     0.072 C 
ATOM      3  C   UNL d   1      66.986  71.577 102.921  0.00  0.00     0.010 C 
ENDROOT
BRANCH   3   4
ATOM      4  C   UNL d   1      67.896  70.391 102.586  0.00  0.00     0.020 C 
BRANCH   4   5
ATOM      5  C   UNL d   1      68.791  69.223 102.256  0.00  0.00     0.259 C 
ATOM      6  O   UNL d   1      68.208  68.116 102.071  0.00  0.00    -0.637 OA
ATOM      7  O   UNL d   1      70.029  69.476 102.199  0.00  0.00    -0.637 OA
ENDBRANCH   4   5
ENDBRANCH   3   4
TORSDOF 2
ENDMDL
MODEL 13
REMARK VINA RESULT:      -2.7     21.248     22.499
REMARK  2 active torsions:
REMARK  status: ('A' for Active; 'I' for Inactive)
REMARK    1  A    between atoms: C_3  and  C_4 
REMARK    2  A    between atoms: C_4  and  C_5 
ROOT
ATOM      1  N   UNL d   1      79.278  67.408  90.985  0.00  0.00    -0.086 N 
ATOM      2  C   UNL d   1      78.027  68.137  90.858  0.00  0.00     0.072 C 
ATOM      3  C   UNL d   1      76.708  68.905  90.724  0.00  0.00     0.010 C 
ENDROOT
BRANCH   3   4
ATOM      4  C   UNL d   1      75.389  69.673  90.591  0.00  0.00     0.020 C 
BRANCH   4   5
ATOM      5  C   UNL d   1      74.091  70.428  90.459  0.00  0.00     0.259 C 
ATOM      6  O   UNL d   1      74.008  71.502  91.122  0.00  0.00    -0.637 OA
ATOM      7  O   UNL d   1      73.225  69.907  89.699  0.00  0.00    -0.637 OA
ENDBRANCH   4   5
ENDBRANCH   3   4
TORSDOF 2
ENDMDL
MODEL 14
REMARK VINA RESULT:      -2.7     28.905     30.217
REMARK  2 active torsions:
REMARK  status: ('A' for Active; 'I' for Inactive)
REMARK    1  A    between atoms: C_3  and  C_4 
REMARK    2  A    between atoms: C_4  and  C_5 
ROOT
ATOM      1  N   UNL d   1      68.307  87.057  99.127  0.00  0.00    -0.086 N 
ATOM      2  C   UNL d   1      69.327  87.679  99.954  0.00  0.00     0.072 C 
ATOM      3  C   UNL d   1      70.403  88.335 100.826  0.00  0.00     0.010 C 
ENDROOT
BRANCH   3   4
ATOM      4  C   UNL d   1      71.478  88.991 101.698  0.00  0.00     0.020 C 
BRANCH   4   5
ATOM      5  C   UNL d   1      72.537  89.636 102.556  0.00  0.00     0.259 C 
ATOM      6  O   UNL d   1      73.719  89.585 102.106  0.00  0.00    -0.637 OA
ATOM      7  O   UNL d   1      72.131  90.159 103.633  0.00  0.00    -0.637 OA
ENDBRANCH   4   5
ENDBRANCH   3   4
TORSDOF 2
ENDMDL
MODEL 15
REMARK VINA RESULT:      -2.6     28.153     29.468
REMARK  2 active torsions:
REMARK  status: ('A' for Active; 'I' for Inactive)
REMARK    1  A    between atoms: C_3  and  C_4 
REMARK    2  A    between atoms: C_4  and  C_5 
ROOT
ATOM      1  N   UNL d   1      71.538  84.479  98.216  0.00  0.00    -0.086 N 
ATOM      2  C   UNL d   1      71.733  85.706  98.972  0.00  0.00     0.072 C 
ATOM      3  C   UNL d   1      71.937  86.998  99.767  0.00  0.00     0.010 C 
ENDROOT
BRANCH   3   4
ATOM      4  C   UNL d   1      72.142  88.291 100.563  0.00  0.00     0.020 C 
BRANCH   4   5
ATOM      5  C   UNL d   1      72.343  89.564 101.346  0.00  0.00     0.259 C 
ATOM      6  O   UNL d   1      73.394  89.620 102.048  0.00  0.00    -0.637 OA
ATOM      7  O   UNL d   1      71.439  90.440 101.217  0.00  0.00    -0.637 OA
ENDBRANCH   4   5
ENDBRANCH   3   4
TORSDOF 2
ENDMDL
MODEL 16
REMARK VINA RESULT:      -2.5     22.459     23.050
REMARK  2 active torsions:
REMARK  status: ('A' for Active; 'I' for Inactive)
REMARK    1  A    between atoms: C_3  and  C_4 
REMARK    2  A    between atoms: C_4  and  C_5 
ROOT
ATOM      1  N   UNL d   1      63.097  86.116  97.054  0.00  0.00    -0.086 N 
ATOM      2  C   UNL d   1      63.158  87.355  96.297  0.00  0.00     0.072 C 
ATOM      3  C   UNL d   1      63.223  88.660  95.499  0.00  0.00     0.010 C 
ENDROOT
BRANCH   3   4
ATOM      4  C   UNL d   1      63.288  89.966  94.700  0.00  0.00     0.020 C 
BRANCH   4   5
ATOM      5  C   UNL d   1      63.352  91.251  93.914  0.00  0.00     0.259 C 
ATOM      6  O   UNL d   1      62.243  91.706  93.509  0.00  0.00    -0.637 OA
ATOM      7  O   UNL d   1      64.508  91.737  93.744  0.00  0.00    -0.637 OA
ENDBRANCH   4   5
ENDBRANCH   3   4
TORSDOF 2
ENDMDL
MODEL 17
REMARK VINA RESULT:      -2.4     21.919     22.457
REMARK  2 active torsions:
REMARK  status: ('A' for Active; 'I' for Inactive)
REMARK    1  A    between atoms: C_3  and  C_4 
REMARK    2  A    between atoms: C_4  and  C_5 
ROOT
ATOM      1  N   UNL d   1      75.832  68.626  94.020  0.00  0.00    -0.086 N 
ATOM      2  C   UNL d   1      75.871  68.965  92.608  0.00  0.00     0.072 C 
ATOM      3  C   UNL d   1      75.913  69.322  91.119  0.00  0.00     0.010 C 
ENDROOT
BRANCH   3   4
ATOM      4  C   UNL d   1      75.954  69.679  89.630  0.00  0.00     0.020 C 
BRANCH   4   5
ATOM      5  C   UNL d   1      75.994  70.030  88.164  0.00  0.00     0.259 C 
ATOM      6  O   UNL d   1      76.542  71.133  87.875  0.00  0.00    -0.637 OA
ATOM      7  O   UNL d   1      75.476  69.183  87.380  0.00  0.00    -0.637 OA
ENDBRANCH   4   5
ENDBRANCH   3   4
TORSDOF 2
ENDMDL
MODEL 18
REMARK VINA RESULT:      -2.4      3.621      4.109
REMARK  2 active torsions:
REMARK  status: ('A' for Active; 'I' for Inactive)
REMARK    1  A    between atoms: C_3  and  C_4 
REMARK    2  A    between atoms: C_4  and  C_5 
ROOT
ATOM      1  N   UNL d   1      57.224  70.032  77.537  0.00  0.00    -0.086 N 
ATOM      2  C   UNL d   1      56.386  70.720  78.504  0.00  0.00     0.072 C 
ATOM      3  C   UNL d   1      55.502  71.445  79.524  0.00  0.00     0.010 C 
ENDROOT
BRANCH   3   4
ATOM      4  C   UNL d   1      54.618  72.170  80.543  0.00  0.00     0.020 C 
BRANCH   4   5
ATOM      5  C   UNL d   1      53.748  72.883  81.547  0.00  0.00     0.259 C 
ATOM      6  O   UNL d   1      52.519  72.584  81.524  0.00  0.00    -0.637 OA
ATOM      7  O   UNL d   1      54.340  73.705  82.305  0.00  0.00    -0.637 OA
ENDBRANCH   4   5
ENDBRANCH   3   4
TORSDOF 2
ENDMDL
MODEL 19
REMARK VINA RESULT:      -2.4     26.131     26.935
REMARK  2 active torsions:
REMARK  status: ('A' for Active; 'I' for Inactive)
REMARK    1  A    between atoms: C_3  and  C_4 
REMARK    2  A    between atoms: C_4  and  C_5 
ROOT
ATOM      1  N   UNL d   1      78.986  80.184  97.061  0.00  0.00    -0.086 N 
ATOM      2  C   UNL d   1      78.348  80.922  95.984  0.00  0.00     0.072 C 
ATOM      3  C   UNL d   1      77.676  81.700  94.848  0.00  0.00     0.010 C 
ENDROOT
BRANCH   3   4
ATOM      4  C   UNL d   1      77.004  82.478  93.713  0.00  0.00     0.020 C 
BRANCH   4   5
ATOM      5  C   UNL d   1      76.342  83.244  92.595  0.00  0.00     0.259 C 
ATOM      6  O   UNL d   1      76.063  82.576  91.558  0.00  0.00    -0.637 OA
ATOM      7  O   UNL d   1      76.138  84.473  92.814  0.00  0.00    -0.637 OA
ENDBRANCH   4   5
ENDBRANCH   3   4
TORSDOF 2
ENDMDL
