MODEL 1
REMARK VINA RESULT:      -6.8      0.000      0.000
REMARK  3 active torsions:
REMARK  status: ('A' for Active; 'I' for Inactive)
REMARK    1  A    between atoms: C_7  and  C_9 
REMARK    2  A    between atoms: C_9  and  C_10 
REMARK    3  A    between atoms: C_10  and  C_11 
ROOT
ATOM      1  C   UNL d   1      57.008  71.813  78.507  0.00  0.00     0.233 C 
ATOM      2  O   UNL d   1      57.186  72.639  77.579  0.00  0.00    -0.278 OA
ENDROOT
BRANCH   1   3
ATOM      3  C   UNL d   1      56.719  72.352  79.818  0.00  0.00     0.085 C 
ATOM      4  C   UNL d   1      57.804  72.516  80.906  0.00  0.00     0.195 C 
ATOM      5  C   UNL d   1      57.279  72.311  82.335  0.00  0.00     0.017 C 
ATOM      6  O   UNL d   1      58.965  72.839  80.685  0.00  0.00    -0.287 OA
ATOM      7  C   UNL d   1      55.874  72.194  82.510  0.00  0.00    -0.005 C 
ATOM      8  C   UNL d   1      58.125  72.425  83.588  0.00  0.00     0.034 C 
ATOM      9  C   UNL d   1      54.785  72.244  81.610  0.00  0.00    -0.022 C 
ATOM     10  C   UNL d   1      53.541  72.988  81.998  0.00  0.00     0.031 C 
ATOM     11  C   UNL d   1      55.375  72.376  80.335  0.00  0.00     0.003 C 
ENDBRANCH   1   3
BRANCH   1  12
ATOM     12  C   UNL d   1      56.954  70.431  78.174  0.00  0.00    -0.060 C 
BRANCH  12  13
ATOM     13  C   UNL d   1      56.900  69.060  77.826  0.00  0.00     0.047 A 
ATOM     14  C   UNL d   1      56.127  68.023  78.396  0.00  0.00     0.070 A 
ATOM     15  C   UNL d   1      55.936  66.629  78.033  0.00  0.00     0.282 A 
ATOM     16  O   UNL d   1      55.194  65.951  78.736  0.00  0.00    -0.265 OA
ATOM     17  N   UNL d   1      56.601  66.184  76.940  0.00  0.00    -0.169 NA
ATOM     18  C   UNL d   1      57.397  67.030  76.242  0.00  0.00     0.282 A 
ATOM     19  O   UNL d   1      58.040  66.734  75.240  0.00  0.00    -0.265 OA
ATOM     20  C   UNL d   1      57.490  68.394  76.730  0.00  0.00     0.070 A 
ENDBRANCH  12  13
ENDBRANCH   1  12
TORSDOF 3
ENDMDL
MODEL 2
REMARK VINA RESULT:      -6.6     31.060     32.968
REMARK  3 active torsions:
REMARK  status: ('A' for Active; 'I' for Inactive)
REMARK    1  A    between atoms: C_7  and  C_9 
REMARK    2  A    between atoms: C_9  and  C_10 
REMARK    3  A    between atoms: C_10  and  C_11 
ROOT
ATOM      1  C   UNL d   1      82.218  79.116  94.465  0.00  0.00     0.233 C 
ATOM      2  O   UNL d   1      81.561  78.685  93.487  0.00  0.00    -0.278 OA
ENDROOT
BRANCH   1   3
ATOM      3  C   UNL d   1      83.659  79.018  94.382  0.00  0.00     0.085 C 
ATOM      4  C   UNL d   1      84.411  77.679  94.549  0.00  0.00     0.195 C 
ATOM      5  C   UNL d   1      85.789  77.824  95.214  0.00  0.00     0.017 C 
ATOM      6  O   UNL d   1      84.001  76.597  94.146  0.00  0.00    -0.287 OA
ATOM      7  C   UNL d   1      86.287  79.140  95.414  0.00  0.00    -0.005 C 
ATOM      8  C   UNL d   1      86.739  76.675  95.487  0.00  0.00     0.034 C 
ATOM      9  C   UNL d   1      85.775  80.420  95.103  0.00  0.00    -0.022 C 
ATOM     10  C   UNL d   1      86.695  81.469  94.552  0.00  0.00     0.031 C 
ATOM     11  C   UNL d   1      84.498  80.176  94.556  0.00  0.00     0.003 C 
ENDBRANCH   1   3
BRANCH   1  12
ATOM     12  C   UNL d   1      81.516  79.796  95.498  0.00  0.00    -0.060 C 
BRANCH  12  13
ATOM     13  C   UNL d   1      80.819  80.459  96.537  0.00  0.00     0.047 A 
ATOM     14  C   UNL d   1      80.139  79.911  97.648  0.00  0.00     0.070 A 
ATOM     15  C   UNL d   1      79.498  80.517  98.802  0.00  0.00     0.282 A 
ATOM     16  O   UNL d   1      78.969  79.772  99.621  0.00  0.00    -0.265 OA
ATOM     17  N   UNL d   1      79.532  81.869  98.883  0.00  0.00    -0.169 NA
ATOM     18  C   UNL d   1      80.147  82.588  97.913  0.00  0.00     0.282 A 
ATOM     19  O   UNL d   1      80.239  83.812  97.888  0.00  0.00    -0.265 OA
ATOM     20  C   UNL d   1      80.741  81.840  96.819  0.00  0.00     0.070 A 
ENDBRANCH  12  13
ENDBRANCH   1  12
TORSDOF 3
ENDMDL
MODEL 3
REMARK VINA RESULT:      -6.6     21.089     22.441
REMARK  3 active torsions:
REMARK  status: ('A' for Active; 'I' for Inactive)
REMARK    1  A    between atoms: C_7  and  C_9 
REMARK    2  A    between atoms: C_9  and  C_10 
REMARK    3  A    between atoms: C_10  and  C_11 
ROOT
ATOM      1  C   UNL d   1      74.783  70.722  89.989  0.00  0.00     0.233 C 
ATOM      2  O   UNL d   1      73.583  70.356  90.000  0.00  0.00    -0.278 OA
ENDROOT
BRANCH   1   3
ATOM      3  C   UNL d   1      75.079  72.017  90.562  0.00  0.00     0.085 C 
ATOM      4  C   UNL d   1      73.974  73.016  90.970  0.00  0.00     0.195 C 
ATOM      5  C   UNL d   1      74.372  74.488  90.780  0.00  0.00     0.017 C 
ATOM      6  O   UNL d   1      72.896  72.697  91.459  0.00  0.00    -0.287 OA
ATOM      7  C   UNL d   1      75.726  74.766  90.452  0.00  0.00    -0.005 C 
ATOM      8  C   UNL d   1      73.484  75.670  91.113  0.00  0.00     0.034 C 
ATOM      9  C   UNL d   1      76.860  73.941  90.267  0.00  0.00    -0.022 C 
ATOM     10  C   UNL d   1      78.184  74.372  90.827  0.00  0.00     0.031 C 
ATOM     11  C   UNL d   1      76.376  72.624  90.405  0.00  0.00     0.003 C 
ENDBRANCH   1   3
BRANCH   1  12
ATOM     12  C   UNL d   1      75.767  69.788  89.561  0.00  0.00    -0.060 C 
BRANCH  12  13
ATOM     13  C   UNL d   1      76.759  68.871  89.136  0.00  0.00     0.047 A 
ATOM     14  C   UNL d   1      77.503  67.943  89.898  0.00  0.00     0.070 A 
ATOM     15  C   UNL d   1      78.451  66.906  89.528  0.00  0.00     0.282 A 
ATOM     16  O   UNL d   1      78.958  66.245  90.429  0.00  0.00    -0.265 OA
ATOM     17  N   UNL d   1      78.704  66.750  88.206  0.00  0.00    -0.169 NA
ATOM     18  C   UNL d   1      78.082  67.544  87.301  0.00  0.00     0.282 A 
ATOM     19  O   UNL d   1      78.235  67.487  86.085  0.00  0.00    -0.265 OA
ATOM     20  C   UNL d   1      77.163  68.539  87.825  0.00  0.00     0.070 A 
ENDBRANCH  12  13
ENDBRANCH   1  12
TORSDOF 3
ENDMDL
MODEL 4
REMARK VINA RESULT:      -6.5     20.977     22.308
REMARK  3 active torsions:
REMARK  status: ('A' for Active; 'I' for Inactive)
REMARK    1  A    between atoms: C_7  and  C_9 
REMARK    2  A    between atoms: C_9  and  C_10 
REMARK    3  A    between atoms: C_10  and  C_11 
ROOT
ATOM      1  C   UNL d   1      74.509  70.916  90.073  0.00  0.00     0.233 C 
ATOM      2  O   UNL d   1      73.315  70.538  90.157  0.00  0.00    -0.278 OA
ENDROOT
BRANCH   1   3
ATOM      3  C   UNL d   1      74.829  72.206  90.645  0.00  0.00     0.085 C 
ATOM      4  C   UNL d   1      73.743  73.217  91.075  0.00  0.00     0.195 C 
ATOM      5  C   UNL d   1      74.155  74.684  90.883  0.00  0.00     0.017 C 
ATOM      6  O   UNL d   1      72.670  72.909  91.581  0.00  0.00    -0.287 OA
ATOM      7  C   UNL d   1      75.507  74.947  90.532  0.00  0.00    -0.005 C 
ATOM      8  C   UNL d   1      73.287  75.876  91.234  0.00  0.00     0.034 C 
ATOM      9  C   UNL d   1      76.627  74.110  90.326  0.00  0.00    -0.022 C 
ATOM     10  C   UNL d   1      77.966  74.523  90.865  0.00  0.00     0.031 C 
ATOM     11  C   UNL d   1      76.130  72.798  90.468  0.00  0.00     0.003 C 
ENDBRANCH   1   3
BRANCH   1  12
ATOM     12  C   UNL d   1      75.471  69.999  89.567  0.00  0.00    -0.060 C 
BRANCH  12  13
ATOM     13  C   UNL d   1      76.422  69.073  89.075  0.00  0.00     0.047 A 
ATOM     14  C   UNL d   1      76.849  68.852  87.746  0.00  0.00     0.070 A 
ATOM     15  C   UNL d   1      77.884  68.006  87.177  0.00  0.00     0.282 A 
ATOM     16  O   UNL d   1      78.024  68.015  85.958  0.00  0.00    -0.265 OA
ATOM     17  N   UNL d   1      78.618  67.267  88.043  0.00  0.00    -0.169 NA
ATOM     18  C   UNL d   1      78.368  67.341  89.373  0.00  0.00     0.282 A 
ATOM     19  O   UNL d   1      78.971  66.719  90.243  0.00  0.00    -0.265 OA
ATOM     20  C   UNL d   1      77.298  68.229  89.791  0.00  0.00     0.070 A 
ENDBRANCH  12  13
ENDBRANCH   1  12
TORSDOF 3
ENDMDL
MODEL 5
REMARK VINA RESULT:      -6.4     23.772     25.579
REMARK  3 active torsions:
REMARK  status: ('A' for Active; 'I' for Inactive)
REMARK    1  A    between atoms: C_7  and  C_9 
REMARK    2  A    between atoms: C_9  and  C_10 
REMARK    3  A    between atoms: C_10  and  C_11 
ROOT
ATOM      1  C   UNL d   1      66.836  86.810  92.542  0.00  0.00     0.233 C 
ATOM      2  O   UNL d   1      66.441  86.125  91.568  0.00  0.00    -0.278 OA
ENDROOT
BRANCH   1   3
ATOM      3  C   UNL d   1      68.067  86.396  93.179  0.00  0.00     0.085 C 
ATOM      4  C   UNL d   1      69.331  86.017  92.376  0.00  0.00     0.195 C 
ATOM      5  C   UNL d   1      70.175  84.916  93.036  0.00  0.00     0.017 C 
ATOM      6  O   UNL d   1      69.686  86.567  91.339  0.00  0.00    -0.287 OA
ATOM      7  C   UNL d   1      69.824  84.521  94.355  0.00  0.00    -0.005 C 
ATOM      8  C   UNL d   1      71.468  84.364  92.469  0.00  0.00     0.034 C 
ATOM      9  C   UNL d   1      68.823  84.953  95.255  0.00  0.00    -0.022 C 
ATOM     10  C   UNL d   1      69.161  85.126  96.707  0.00  0.00     0.031 C 
ATOM     11  C   UNL d   1      68.080  85.912  94.536  0.00  0.00     0.003 C 
ENDBRANCH   1   3
BRANCH   1  12
ATOM     12  C   UNL d   1      66.138  88.012  92.846  0.00  0.00    -0.060 C 
BRANCH  12  13
ATOM     13  C   UNL d   1      65.457  89.217  93.143  0.00  0.00     0.047 A 
ATOM     14  C   UNL d   1      64.683  90.038  92.293  0.00  0.00     0.070 A 
ATOM     15  C   UNL d   1      63.874  91.219  92.542  0.00  0.00     0.282 A 
ATOM     16  O   UNL d   1      63.308  91.738  91.584  0.00  0.00    -0.265 OA
ATOM     17  N   UNL d   1      63.808  91.660  93.821  0.00  0.00    -0.169 NA
ATOM     18  C   UNL d   1      64.480  91.002  94.797  0.00  0.00     0.282 A 
ATOM     19  O   UNL d   1      64.488  91.312  95.984  0.00  0.00    -0.265 OA
ATOM     20  C   UNL d   1      65.250  89.840  94.393  0.00  0.00     0.070 A 
ENDBRANCH  12  13
ENDBRANCH   1  12
TORSDOF 3
ENDMDL
MODEL 6
REMARK VINA RESULT:      -6.4      4.398      6.840
REMARK  3 active torsions:
REMARK  status: ('A' for Active; 'I' for Inactive)
REMARK    1  A    between atoms: C_7  and  C_9 
REMARK    2  A    between atoms: C_9  and  C_10 
REMARK    3  A    between atoms: C_10  and  C_11 
ROOT
ATOM      1  C   UNL d   1      53.351  73.251  80.646  0.00  0.00     0.233 C 
ATOM      2  O   UNL d   1      52.384  72.587  81.092  0.00  0.00    -0.278 OA
ENDROOT
BRANCH   1   3
ATOM      3  C   UNL d   1      53.035  74.405  79.834  0.00  0.00     0.085 C 
ATOM      4  C   UNL d   1      52.499  74.283  78.391  0.00  0.00     0.195 C 
ATOM      5  C   UNL d   1      52.963  75.416  77.463  0.00  0.00     0.017 C 
ATOM      6  O   UNL d   1      51.727  73.412  78.008  0.00  0.00    -0.287 OA
ATOM      7  C   UNL d   1      53.643  76.515  78.055  0.00  0.00    -0.005 C 
ATOM      8  C   UNL d   1      52.576  75.548  76.003  0.00  0.00     0.034 C 
ATOM      9  C   UNL d   1      53.993  76.823  79.389  0.00  0.00    -0.022 C 
ATOM     10  C   UNL d   1      53.830  78.229  79.888  0.00  0.00     0.031 C 
ATOM     11  C   UNL d   1      53.577  75.704  80.140  0.00  0.00     0.003 C 
ENDBRANCH   1   3
BRANCH   1  12
ATOM     12  C   UNL d   1      54.660  72.913  81.091  0.00  0.00    -0.060 C 
BRANCH  12  13
ATOM     13  C   UNL d   1      55.955  72.569  81.547  0.00  0.00     0.047 A 
ATOM     14  C   UNL d   1      57.137  72.353  80.804  0.00  0.00     0.070 A 
ATOM     15  C   UNL d   1      58.513  72.104  81.199  0.00  0.00     0.282 A 
ATOM     16  O   UNL d   1      59.343  71.944  80.310  0.00  0.00    -0.265 OA
ATOM     17  N   UNL d   1      58.771  72.067  82.528  0.00  0.00    -0.169 NA
ATOM     18  C   UNL d   1      57.767  72.258  83.418  0.00  0.00     0.282 A 
ATOM     19  O   UNL d   1      57.890  72.248  84.638  0.00  0.00    -0.265 OA
ATOM     20  C   UNL d   1      56.443  72.492  82.870  0.00  0.00     0.070 A 
ENDBRANCH  12  13
ENDBRANCH   1  12
TORSDOF 3
ENDMDL
MODEL 7
REMARK VINA RESULT:      -6.4     27.886     31.614
REMARK  3 active torsions:
REMARK  status: ('A' for Active; 'I' for Inactive)
REMARK    1  A    between atoms: C_7  and  C_9 
REMARK    2  A    between atoms: C_9  and  C_10 
REMARK    3  A    between atoms: C_10  and  C_11 
ROOT
ATOM      1  C   UNL d   1      81.527  81.962  96.890  0.00  0.00     0.233 C 
ATOM      2  O   UNL d   1      81.976  82.664  97.828  0.00  0.00    -0.278 OA
ENDROOT
BRANCH   1   3
ATOM      3  C   UNL d   1      82.473  81.119  96.192  0.00  0.00     0.085 C 
ATOM      4  C   UNL d   1      84.000  81.336  96.278  0.00  0.00     0.195 C 
ATOM      5  C   UNL d   1      84.749  80.974  94.986  0.00  0.00     0.017 C 
ATOM      6  O   UNL d   1      84.594  81.703  97.285  0.00  0.00    -0.287 OA
ATOM      7  C   UNL d   1      84.014  80.318  93.962  0.00  0.00    -0.005 C 
ATOM      8  C   UNL d   1      86.249  81.079  94.801  0.00  0.00     0.034 C 
ATOM      9  C   UNL d   1      82.672  79.883  93.869  0.00  0.00    -0.022 C 
ATOM     10  C   UNL d   1      82.369  78.549  93.252  0.00  0.00     0.031 C 
ATOM     11  C   UNL d   1      82.068  80.313  95.069  0.00  0.00     0.003 C 
ENDBRANCH   1   3
BRANCH   1  12
ATOM     12  C   UNL d   1      80.120  81.933  96.685  0.00  0.00    -0.060 C 
BRANCH  12  13
ATOM     13  C   UNL d   1      78.722  81.904  96.464  0.00  0.00     0.047 A 
ATOM     14  C   UNL d   1      77.674  82.333  97.309  0.00  0.00     0.070 A 
ATOM     15  C   UNL d   1      76.238  82.435  97.116  0.00  0.00     0.282 A 
ATOM     16  O   UNL d   1      75.562  82.845  98.054  0.00  0.00    -0.265 OA
ATOM     17  N   UNL d   1      75.754  82.064  95.906  0.00  0.00    -0.169 NA
ATOM     18  C   UNL d   1      76.602  81.624  94.945  0.00  0.00     0.282 A 
ATOM     19  O   UNL d   1      76.273  81.267  93.819  0.00  0.00    -0.265 OA
ATOM     20  C   UNL d   1      78.012  81.575  95.288  0.00  0.00     0.070 A 
ENDBRANCH  12  13
ENDBRANCH   1  12
TORSDOF 3
ENDMDL
MODEL 8
REMARK VINA RESULT:      -6.3     21.885     23.922
REMARK  3 active torsions:
REMARK  status: ('A' for Active; 'I' for Inactive)
REMARK    1  A    between atoms: C_7  and  C_9 
REMARK    2  A    between atoms: C_9  and  C_10 
REMARK    3  A    between atoms: C_10  and  C_11 
ROOT
ATOM      1  C   UNL d   1      74.957  71.613  90.701  0.00  0.00     0.233 C 
ATOM      2  O   UNL d   1      73.720  71.779  90.828  0.00  0.00    -0.278 OA
ENDROOT
BRANCH   1   3
ATOM      3  C   UNL d   1      75.422  70.255  90.520  0.00  0.00     0.085 C 
ATOM      4  C   UNL d   1      75.782  69.336  91.707  0.00  0.00     0.195 C 
ATOM      5  C   UNL d   1      76.927  68.357  91.404  0.00  0.00     0.017 C 
ATOM      6  O   UNL d   1      75.190  69.322  92.780  0.00  0.00    -0.287 OA
ATOM      7  C   UNL d   1      77.379  68.270  90.060  0.00  0.00    -0.005 C 
ATOM      8  C   UNL d   1      77.472  67.338  92.385  0.00  0.00     0.034 C 
ATOM      9  C   UNL d   1      76.973  68.908  88.865  0.00  0.00    -0.022 C 
ATOM     10  C   UNL d   1      76.876  68.110  87.598  0.00  0.00     0.031 C 
ATOM     11  C   UNL d   1      75.970  69.816  89.263  0.00  0.00     0.003 C 
ENDBRANCH   1   3
BRANCH   1  12
ATOM     12  C   UNL d   1      75.782  72.767  90.595  0.00  0.00    -0.060 C 
BRANCH  12  13
ATOM     13  C   UNL d   1      76.596  73.919  90.473  0.00  0.00     0.047 A 
ATOM     14  C   UNL d   1      76.468  75.175  91.108  0.00  0.00     0.070 A 
ATOM     15  C   UNL d   1      77.310  76.359  91.119  0.00  0.00     0.282 A 
ATOM     16  O   UNL d   1      76.930  77.326  91.771  0.00  0.00    -0.265 OA
ATOM     17  N   UNL d   1      78.457  76.302  90.400  0.00  0.00    -0.169 NA
ATOM     18  C   UNL d   1      78.771  75.175  89.717  0.00  0.00     0.282 A 
ATOM     19  O   UNL d   1      79.781  75.015  89.039  0.00  0.00    -0.265 OA
ATOM     20  C   UNL d   1      77.827  74.075  89.799  0.00  0.00     0.070 A 
ENDBRANCH  12  13
ENDBRANCH   1  12
TORSDOF 3
ENDMDL
MODEL 9
REMARK VINA RESULT:      -6.2     19.494     23.461
REMARK  3 active torsions:
REMARK  status: ('A' for Active; 'I' for Inactive)
REMARK    1  A    between atoms: C_7  and  C_9 
REMARK    2  A    between atoms: C_9  and  C_10 
REMARK    3  A    between atoms: C_10  and  C_11 
ROOT
ATOM      1  C   UNL d   1      61.221  87.442  90.871  0.00  0.00     0.233 C 
ATOM      2  O   UNL d   1      61.997  86.581  90.391  0.00  0.00    -0.278 OA
ENDROOT
BRANCH   1   3
ATOM      3  C   UNL d   1      59.846  87.409  90.421  0.00  0.00     0.085 C 
ATOM      4  C   UNL d   1      58.704  88.110  91.190  0.00  0.00     0.195 C 
ATOM      5  C   UNL d   1      57.358  87.375  91.098  0.00  0.00     0.017 C 
ATOM      6  O   UNL d   1      58.815  89.181  91.774  0.00  0.00    -0.287 OA
ATOM      7  C   UNL d   1      57.264  86.284  90.192  0.00  0.00    -0.005 C 
ATOM      8  C   UNL d   1      56.072  87.848  91.747  0.00  0.00     0.034 C 
ATOM      9  C   UNL d   1      58.184  85.701  89.291  0.00  0.00    -0.022 C 
ATOM     10  C   UNL d   1      57.717  85.290  87.924  0.00  0.00     0.031 C 
ATOM     11  C   UNL d   1      59.388  86.406  89.495  0.00  0.00     0.003 C 
ENDBRANCH   1   3
BRANCH   1  12
ATOM     12  C   UNL d   1      61.705  88.274  91.918  0.00  0.00    -0.060 C 
BRANCH  12  13
ATOM     13  C   UNL d   1      62.171  89.102  92.968  0.00  0.00     0.047 A 
ATOM     14  C   UNL d   1      63.197  90.073  92.952  0.00  0.00     0.070 A 
ATOM     15  C   UNL d   1      63.659  91.028  93.945  0.00  0.00     0.282 A 
ATOM     16  O   UNL d   1      64.598  91.757  93.644  0.00  0.00    -0.265 OA
ATOM     17  N   UNL d   1      63.013  91.035  95.136  0.00  0.00    -0.169 NA
ATOM     18  C   UNL d   1      61.987  90.178  95.353  0.00  0.00     0.282 A 
ATOM     19  O   UNL d   1      61.333  90.102  96.389  0.00  0.00    -0.265 OA
ATOM     20  C   UNL d   1      61.642  89.280  94.265  0.00  0.00     0.070 A 
ENDBRANCH  12  13
ENDBRANCH   1  12
TORSDOF 3
ENDMDL
MODEL 10
REMARK VINA RESULT:      -6.2     21.732     24.679
REMARK  3 active torsions:
REMARK  status: ('A' for Active; 'I' for Inactive)
REMARK    1  A    between atoms: C_7  and  C_9 
REMARK    2  A    between atoms: C_9  and  C_10 
REMARK    3  A    between atoms: C_10  and  C_11 
ROOT
ATOM      1  C   UNL d   1      65.497  86.288  91.695  0.00  0.00     0.233 C 
ATOM      2  O   UNL d   1      64.615  85.875  90.903  0.00  0.00    -0.278 OA
ENDROOT
BRANCH   1   3
ATOM      3  C   UNL d   1      66.662  85.449  91.873  0.00  0.00     0.085 C 
ATOM      4  C   UNL d   1      66.559  83.937  92.174  0.00  0.00     0.195 C 
ATOM      5  C   UNL d   1      67.685  83.410  93.076  0.00  0.00     0.017 C 
ATOM      6  O   UNL d   1      65.707  83.192  91.703  0.00  0.00    -0.287 OA
ATOM      7  C   UNL d   1      68.765  84.288  93.362  0.00  0.00    -0.005 C 
ATOM      8  C   UNL d   1      67.831  81.967  93.516  0.00  0.00     0.034 C 
ATOM      9  C   UNL d   1      69.059  85.612  92.963  0.00  0.00    -0.022 C 
ATOM     10  C   UNL d   1      70.466  85.974  92.586  0.00  0.00     0.031 C 
ATOM     11  C   UNL d   1      67.946  86.015  92.195  0.00  0.00     0.003 C 
ENDBRANCH   1   3
BRANCH   1  12
ATOM     12  C   UNL d   1      65.358  87.597  92.232  0.00  0.00    -0.060 C 
BRANCH  12  13
ATOM     13  C   UNL d   1      65.227  88.907  92.752  0.00  0.00     0.047 A 
ATOM     14  C   UNL d   1      66.043  89.585  93.684  0.00  0.00     0.070 A 
ATOM     15  C   UNL d   1      66.039  90.950  94.183  0.00  0.00     0.282 A 
ATOM     16  O   UNL d   1      66.886  91.257  95.016  0.00  0.00    -0.265 OA
ATOM     17  N   UNL d   1      65.091  91.780  93.687  0.00  0.00    -0.169 NA
ATOM     18  C   UNL d   1      64.206  91.323  92.769  0.00  0.00     0.282 A 
ATOM     19  O   UNL d   1      63.312  91.988  92.254  0.00  0.00    -0.265 OA
ATOM     20  C   UNL d   1      64.334  89.933  92.370  0.00  0.00     0.070 A 
ENDBRANCH  12  13
ENDBRANCH   1  12
TORSDOF 3
ENDMDL
MODEL 11
REMARK VINA RESULT:      -6.2     21.899     22.941
REMARK  3 active torsions:
REMARK  status: ('A' for Active; 'I' for Inactive)
REMARK    1  A    between atoms: C_7  and  C_9 
REMARK    2  A    between atoms: C_9  and  C_10 
REMARK    3  A    between atoms: C_10  and  C_11 
ROOT
ATOM      1  C   UNL d   1      75.666  71.313  89.938  0.00  0.00     0.233 C 
ATOM      2  O   UNL d   1      74.659  71.118  90.662  0.00  0.00    -0.278 OA
ENDROOT
BRANCH   1   3
ATOM      3  C   UNL d   1      76.083  72.685  89.749  0.00  0.00     0.085 C 
ATOM      4  C   UNL d   1      77.551  73.076  89.471  0.00  0.00     0.195 C 
ATOM      5  C   UNL d   1      77.952  74.433  90.072  0.00  0.00     0.017 C 
ATOM      6  O   UNL d   1      78.328  72.418  88.790  0.00  0.00    -0.287 OA
ATOM      7  C   UNL d   1      76.920  75.239  90.623  0.00  0.00    -0.005 C 
ATOM      8  C   UNL d   1      79.325  75.061  89.939  0.00  0.00     0.034 C 
ATOM      9  C   UNL d   1      75.521  75.068  90.733  0.00  0.00    -0.022 C 
ATOM     10  C   UNL d   1      74.612  76.232  90.467  0.00  0.00     0.031 C 
ATOM     11  C   UNL d   1      75.271  73.782  90.211  0.00  0.00     0.003 C 
ENDBRANCH   1   3
BRANCH   1  12
ATOM     12  C   UNL d   1      76.400  70.180  89.489  0.00  0.00    -0.060 C 
BRANCH  12  13
ATOM     13  C   UNL d   1      77.134  69.049  89.060  0.00  0.00     0.047 A 
ATOM     14  C   UNL d   1      77.544  67.916  89.798  0.00  0.00     0.070 A 
ATOM     15  C   UNL d   1      78.201  66.679  89.412  0.00  0.00     0.282 A 
ATOM     16  O   UNL d   1      78.445  65.861  90.293  0.00  0.00    -0.265 OA
ATOM     17  N   UNL d   1      78.496  66.525  88.098  0.00  0.00    -0.169 NA
ATOM     18  C   UNL d   1      78.177  67.502  87.216  0.00  0.00     0.282 A 
ATOM     19  O   UNL d   1      78.395  67.466  86.009  0.00  0.00    -0.265 OA
ATOM     20  C   UNL d   1      77.527  68.684  87.753  0.00  0.00     0.070 A 
ENDBRANCH  12  13
ENDBRANCH   1  12
TORSDOF 3
ENDMDL
MODEL 12
REMARK VINA RESULT:      -6.1     21.013     22.927
REMARK  3 active torsions:
REMARK  status: ('A' for Active; 'I' for Inactive)
REMARK    1  A    between atoms: C_7  and  C_9 
REMARK    2  A    between atoms: C_9  and  C_10 
REMARK    3  A    between atoms: C_10  and  C_11 
ROOT
ATOM      1  C   UNL d   1      74.736  70.474  90.208  0.00  0.00     0.233 C 
ATOM      2  O   UNL d   1      73.706  69.763  90.120  0.00  0.00    -0.278 OA
ENDROOT
BRANCH   1   3
ATOM      3  C   UNL d   1      75.991  69.859  89.837  0.00  0.00     0.085 C 
ATOM      4  C   UNL d   1      76.416  69.662  88.365  0.00  0.00     0.195 C 
ATOM      5  C   UNL d   1      77.250  68.394  88.128  0.00  0.00     0.017 C 
ATOM      6  O   UNL d   1      76.178  70.455  87.462  0.00  0.00    -0.287 OA
ATOM      7  C   UNL d   1      77.691  67.674  89.271  0.00  0.00    -0.005 C 
ATOM      8  C   UNL d   1      77.806  67.967  86.784  0.00  0.00     0.034 C 
ATOM      9  C   UNL d   1      77.539  67.887  90.660  0.00  0.00    -0.022 C 
ATOM     10  C   UNL d   1      78.705  67.652  91.575  0.00  0.00     0.031 C 
ATOM     11  C   UNL d   1      76.719  69.030  90.763  0.00  0.00     0.003 C 
ENDBRANCH   1   3
BRANCH   1  12
ATOM     12  C   UNL d   1      74.575  71.853  90.516  0.00  0.00    -0.060 C 
BRANCH  12  13
ATOM     13  C   UNL d   1      74.398  73.225  90.818  0.00  0.00     0.047 A 
ATOM     14  C   UNL d   1      73.275  73.881  91.370  0.00  0.00     0.070 A 
ATOM     15  C   UNL d   1      73.053  75.250  91.804  0.00  0.00     0.282 A 
ATOM     16  O   UNL d   1      71.945  75.538  92.245  0.00  0.00    -0.265 OA
ATOM     17  N   UNL d   1      74.095  76.107  91.685  0.00  0.00    -0.169 NA
ATOM     18  C   UNL d   1      75.275  75.670  91.180  0.00  0.00     0.282 A 
ATOM     19  O   UNL d   1      76.280  76.358  91.031  0.00  0.00    -0.265 OA
ATOM     20  C   UNL d   1      75.342  74.275  90.785  0.00  0.00     0.070 A 
ENDBRANCH  12  13
ENDBRANCH   1  12
TORSDOF 3
ENDMDL
MODEL 13
REMARK VINA RESULT:      -5.9     19.535     23.541
REMARK  3 active torsions:
REMARK  status: ('A' for Active; 'I' for Inactive)
REMARK    1  A    between atoms: C_7  and  C_9 
REMARK    2  A    between atoms: C_9  and  C_10 
REMARK    3  A    between atoms: C_10  and  C_11 
ROOT
ATOM      1  C   UNL d   1      61.652  87.834  90.764  0.00  0.00     0.233 C 
ATOM      2  O   UNL d   1      62.444  87.555  89.831  0.00  0.00    -0.278 OA
ENDROOT
BRANCH   1   3
ATOM      3  C   UNL d   1      60.367  87.169  90.756  0.00  0.00     0.085 C 
ATOM      4  C   UNL d   1      60.034  86.020  89.779  0.00  0.00     0.195 C 
ATOM      5  C   UNL d   1      58.561  85.990  89.342  0.00  0.00     0.017 C 
ATOM      6  O   UNL d   1      60.831  85.162  89.417  0.00  0.00    -0.287 OA
ATOM      7  C   UNL d   1      57.660  86.863  90.008  0.00  0.00    -0.005 C 
ATOM      8  C   UNL d   1      57.963  84.964  88.401  0.00  0.00     0.034 C 
ATOM      9  C   UNL d   1      57.823  87.796  91.058  0.00  0.00    -0.022 C 
ATOM     10  C   UNL d   1      56.784  87.880  92.138  0.00  0.00     0.031 C 
ATOM     11  C   UNL d   1      59.204  87.785  91.340  0.00  0.00     0.003 C 
ENDBRANCH   1   3
BRANCH   1  12
ATOM     12  C   UNL d   1      62.127  88.654  91.825  0.00  0.00    -0.060 C 
BRANCH  12  13
ATOM     13  C   UNL d   1      62.612  89.457  92.886  0.00  0.00     0.047 A 
ATOM     14  C   UNL d   1      63.701  90.356  92.900  0.00  0.00     0.070 A 
ATOM     15  C   UNL d   1      64.193  91.286  93.903  0.00  0.00     0.282 A 
ATOM     16  O   UNL d   1      65.189  91.947  93.631  0.00  0.00    -0.265 OA
ATOM     17  N   UNL d   1      63.507  91.347  95.070  0.00  0.00    -0.169 NA
ATOM     18  C   UNL d   1      62.418  90.563  95.256  0.00  0.00     0.282 A 
ATOM     19  O   UNL d   1      61.725  90.541  96.268  0.00  0.00    -0.265 OA
ATOM     20  C   UNL d   1      62.051  89.681  94.162  0.00  0.00     0.070 A 
ENDBRANCH  12  13
ENDBRANCH   1  12
TORSDOF 3
ENDMDL
MODEL 14
REMARK VINA RESULT:      -5.8      1.429      2.532
REMARK  3 active torsions:
REMARK  status: ('A' for Active; 'I' for Inactive)
REMARK    1  A    between atoms: C_7  and  C_9 
REMARK    2  A    between atoms: C_9  and  C_10 
REMARK    3  A    between atoms: C_10  and  C_11 
ROOT
ATOM      1  C   UNL d   1      56.769  71.728  78.952  0.00  0.00     0.233 C 
ATOM      2  O   UNL d   1      56.983  72.841  78.414  0.00  0.00    -0.278 OA
ENDROOT
BRANCH   1   3
ATOM      3  C   UNL d   1      56.149  71.741  80.259  0.00  0.00     0.085 C 
ATOM      4  C   UNL d   1      54.620  71.848  80.451  0.00  0.00     0.195 C 
ATOM      5  C   UNL d   1      54.209  72.619  81.715  0.00  0.00     0.017 C 
ATOM      6  O   UNL d   1      53.789  71.326  79.716  0.00  0.00    -0.287 OA
ATOM      7  C   UNL d   1      55.234  72.965  82.636  0.00  0.00    -0.005 C 
ATOM      8  C   UNL d   1      52.777  72.861  82.149  0.00  0.00     0.034 C 
ATOM      9  C   UNL d   1      56.628  72.728  82.658  0.00  0.00    -0.022 C 
ATOM     10  C   UNL d   1      57.288  72.335  83.947  0.00  0.00     0.031 C 
ATOM     11  C   UNL d   1      56.903  72.072  81.440  0.00  0.00     0.003 C 
ENDBRANCH   1   3
BRANCH   1  12
ATOM     12  C   UNL d   1      57.009  70.554  78.186  0.00  0.00    -0.060 C 
BRANCH  12  13
ATOM     13  C   UNL d   1      57.246  69.375  77.439  0.00  0.00     0.047 A 
ATOM     14  C   UNL d   1      56.745  68.071  77.645  0.00  0.00     0.070 A 
ATOM     15  C   UNL d   1      56.853  66.845  76.872  0.00  0.00     0.282 A 
ATOM     16  O   UNL d   1      56.306  65.839  77.314  0.00  0.00    -0.265 OA
ATOM     17  N   UNL d   1      57.557  66.909  75.716  0.00  0.00    -0.169 NA
ATOM     18  C   UNL d   1      58.118  68.080  75.331  0.00  0.00     0.282 A 
ATOM     19  O   UNL d   1      58.771  68.251  74.307  0.00  0.00    -0.265 OA
ATOM     20  C   UNL d   1      57.926  69.219  76.211  0.00  0.00     0.070 A 
ENDBRANCH  12  13
ENDBRANCH   1  12
TORSDOF 3
ENDMDL
MODEL 15
REMARK VINA RESULT:      -5.8     19.846     23.143
REMARK  3 active torsions:
REMARK  status: ('A' for Active; 'I' for Inactive)
REMARK    1  A    between atoms: C_7  and  C_9 
REMARK    2  A    between atoms: C_9  and  C_10 
REMARK    3  A    between atoms: C_10  and  C_11 
ROOT
ATOM      1  C   UNL d   1      61.462  87.808  90.138  0.00  0.00     0.233 C 
ATOM      2  O   UNL d   1      61.667  87.500  88.939  0.00  0.00    -0.278 OA
ENDROOT
BRANCH   1   3
ATOM      3  C   UNL d   1      60.186  87.429  90.703  0.00  0.00     0.085 C 
ATOM      4  C   UNL d   1      59.110  86.674  89.892  0.00  0.00     0.195 C 
ATOM      5  C   UNL d   1      57.671  87.046  90.281  0.00  0.00     0.017 C 
ATOM      6  O   UNL d   1      59.349  85.811  89.056  0.00  0.00    -0.287 OA
ATOM      7  C   UNL d   1      57.490  87.861  91.430  0.00  0.00    -0.005 C 
ATOM      8  C   UNL d   1      56.427  86.448  89.654  0.00  0.00     0.034 C 
ATOM      9  C   UNL d   1      58.391  88.425  92.361  0.00  0.00    -0.022 C 
ATOM     10  C   UNL d   1      58.049  88.410  93.822  0.00  0.00     0.031 C 
ATOM     11  C   UNL d   1      59.671  88.074  91.884  0.00  0.00     0.003 C 
ENDBRANCH   1   3
BRANCH   1  12
ATOM     12  C   UNL d   1      62.540  88.363  90.883  0.00  0.00    -0.060 C 
BRANCH  12  13
ATOM     13  C   UNL d   1      63.621  88.900  91.622  0.00  0.00     0.047 A 
ATOM     14  C   UNL d   1      63.757  90.179  92.206  0.00  0.00     0.070 A 
ATOM     15  C   UNL d   1      64.776  90.764  93.061  0.00  0.00     0.282 A 
ATOM     16  O   UNL d   1      64.626  91.929  93.415  0.00  0.00    -0.265 OA
ATOM     17  N   UNL d   1      65.820  89.971  93.401  0.00  0.00    -0.169 NA
ATOM     18  C   UNL d   1      65.876  88.696  92.945  0.00  0.00     0.282 A 
ATOM     19  O   UNL d   1      66.771  87.894  93.192  0.00  0.00    -0.265 OA
ATOM     20  C   UNL d   1      64.785  88.255  92.096  0.00  0.00     0.070 A 
ENDBRANCH  12  13
ENDBRANCH   1  12
TORSDOF 3
ENDMDL
MODEL 16
REMARK VINA RESULT:      -5.7     14.765     18.319
REMARK  3 active torsions:
REMARK  status: ('A' for Active; 'I' for Inactive)
REMARK    1  A    between atoms: C_7  and  C_9 
REMARK    2  A    between atoms: C_9  and  C_10 
REMARK    3  A    between atoms: C_10  and  C_11 
ROOT
ATOM      1  C   UNL d   1      67.554  74.127  93.083  0.00  0.00     0.233 C 
ATOM      2  O   UNL d   1      67.480  73.777  94.286  0.00  0.00    -0.278 OA
ENDROOT
BRANCH   1   3
ATOM      3  C   UNL d   1      66.306  74.361  92.390  0.00  0.00     0.085 C 
ATOM      4  C   UNL d   1      65.276  73.239  92.133  0.00  0.00     0.195 C 
ATOM      5  C   UNL d   1      64.504  73.401  90.815  0.00  0.00     0.017 C 
ATOM      6  O   UNL d   1      65.032  72.329  92.916  0.00  0.00    -0.287 OA
ATOM      7  C   UNL d   1      64.671  74.617  90.100  0.00  0.00    -0.005 C 
ATOM      8  C   UNL d   1      63.429  72.452  90.324  0.00  0.00     0.034 C 
ATOM      9  C   UNL d   1      65.420  75.788  90.355  0.00  0.00    -0.022 C 
ATOM     10  C   UNL d   1      64.809  77.131  90.078  0.00  0.00     0.031 C 
ATOM     11  C   UNL d   1      66.127  75.514  91.545  0.00  0.00     0.003 C 
ENDBRANCH   1   3
BRANCH   1  12
ATOM     12  C   UNL d   1      68.840  74.410  92.544  0.00  0.00    -0.060 C 
BRANCH  12  13
ATOM     13  C   UNL d   1      70.127  74.682  92.021  0.00  0.00     0.047 A 
ATOM     14  C   UNL d   1      70.530  75.693  91.121  0.00  0.00     0.070 A 
ATOM     15  C   UNL d   1      71.833  76.101  90.623  0.00  0.00     0.282 A 
ATOM     16  O   UNL d   1      71.875  77.031  89.823  0.00  0.00    -0.265 OA
ATOM     17  N   UNL d   1      72.907  75.417  91.084  0.00  0.00    -0.169 NA
ATOM     18  C   UNL d   1      72.734  74.404  91.968  0.00  0.00     0.282 A 
ATOM     19  O   UNL d   1      73.634  73.723  92.450  0.00  0.00    -0.265 OA
ATOM     20  C   UNL d   1      71.370  74.111  92.370  0.00  0.00     0.070 A 
ENDBRANCH  12  13
ENDBRANCH   1  12
TORSDOF 3
ENDMDL
MODEL 17
REMARK VINA RESULT:      -5.7     23.271     25.516
REMARK  3 active torsions:
REMARK  status: ('A' for Active; 'I' for Inactive)
REMARK    1  A    between atoms: C_7  and  C_9 
REMARK    2  A    between atoms: C_9  and  C_10 
REMARK    3  A    between atoms: C_10  and  C_11 
ROOT
ATOM      1  C   UNL d   1      66.404  86.371  92.364  0.00  0.00     0.233 C 
ATOM      2  O   UNL d   1      65.965  85.916  91.280  0.00  0.00    -0.278 OA
ENDROOT
BRANCH   1   3
ATOM      3  C   UNL d   1      67.350  85.548  93.086  0.00  0.00     0.085 C 
ATOM      4  C   UNL d   1      67.192  85.224  94.588  0.00  0.00     0.195 C 
ATOM      5  C   UNL d   1      68.529  85.087  95.333  0.00  0.00     0.017 C 
ATOM      6  O   UNL d   1      66.119  85.030  95.147  0.00  0.00    -0.287 OA
ATOM      7  C   UNL d   1      69.717  85.075  94.555  0.00  0.00    -0.005 C 
ATOM      8  C   UNL d   1      68.664  84.761  96.807  0.00  0.00     0.034 C 
ATOM      9  C   UNL d   1      69.957  85.149  93.163  0.00  0.00    -0.022 C 
ATOM     10  C   UNL d   1      70.998  84.262  92.546  0.00  0.00     0.031 C 
ATOM     11  C   UNL d   1      68.683  85.329  92.586  0.00  0.00     0.003 C 
ENDBRANCH   1   3
BRANCH   1  12
ATOM     12  C   UNL d   1      66.063  87.705  92.720  0.00  0.00    -0.060 C 
BRANCH  12  13
ATOM     13  C   UNL d   1      65.740  89.038  93.071  0.00  0.00     0.047 A 
ATOM     14  C   UNL d   1      64.751  89.890  92.531  0.00  0.00     0.070 A 
ATOM     15  C   UNL d   1      64.290  91.217  92.902  0.00  0.00     0.282 A 
ATOM     16  O   UNL d   1      63.399  91.724  92.228  0.00  0.00    -0.265 OA
ATOM     17  N   UNL d   1      64.887  91.797  93.972  0.00  0.00    -0.169 NA
ATOM     18  C   UNL d   1      65.865  91.137  94.639  0.00  0.00     0.282 A 
ATOM     19  O   UNL d   1      66.468  91.565  95.618  0.00  0.00    -0.265 OA
ATOM     20  C   UNL d   1      66.219  89.818  94.147  0.00  0.00     0.070 A 
ENDBRANCH  12  13
ENDBRANCH   1  12
TORSDOF 3
ENDMDL
MODEL 18
REMARK VINA RESULT:      -5.5     21.189     24.524
REMARK  3 active torsions:
REMARK  status: ('A' for Active; 'I' for Inactive)
REMARK    1  A    between atoms: C_7  and  C_9 
REMARK    2  A    between atoms: C_9  and  C_10 
REMARK    3  A    between atoms: C_10  and  C_11 
ROOT
ATOM      1  C   UNL d   1      77.610  70.627  90.685  0.00  0.00     0.233 C 
ATOM      2  O   UNL d   1      77.274  69.960  91.694  0.00  0.00    -0.278 OA
ENDROOT
BRANCH   1   3
ATOM      3  C   UNL d   1      77.608  69.937  89.413  0.00  0.00     0.085 C 
ATOM      4  C   UNL d   1      76.822  70.456  88.189  0.00  0.00     0.195 C 
ATOM      5  C   UNL d   1      76.273  69.337  87.290  0.00  0.00     0.017 C 
ATOM      6  O   UNL d   1      76.684  71.639  87.902  0.00  0.00    -0.287 OA
ATOM      7  C   UNL d   1      76.697  68.008  87.560  0.00  0.00    -0.005 C 
ATOM      8  C   UNL d   1      75.477  69.565  86.020  0.00  0.00     0.034 C 
ATOM      9  C   UNL d   1      77.578  67.456  88.517  0.00  0.00    -0.022 C 
ATOM     10  C   UNL d   1      78.535  66.377  88.103  0.00  0.00     0.031 C 
ATOM     11  C   UNL d   1      77.975  68.548  89.317  0.00  0.00     0.003 C 
ENDBRANCH   1   3
BRANCH   1  12
ATOM     12  C   UNL d   1      77.816  72.026  90.842  0.00  0.00    -0.060 C 
BRANCH  12  13
ATOM     13  C   UNL d   1      78.010  73.417  91.012  0.00  0.00     0.047 A 
ATOM     14  C   UNL d   1      78.560  74.360  90.115  0.00  0.00     0.070 A 
ATOM     15  C   UNL d   1      78.696  75.805  90.172  0.00  0.00     0.282 A 
ATOM     16  O   UNL d   1      79.236  76.367  89.224  0.00  0.00    -0.265 OA
ATOM     17  N   UNL d   1      78.212  76.423  91.276  0.00  0.00    -0.169 NA
ATOM     18  C   UNL d   1      77.635  75.693  92.261  0.00  0.00     0.282 A 
ATOM     19  O   UNL d   1      77.164  76.149  93.298  0.00  0.00    -0.265 OA
ATOM     20  C   UNL d   1      77.576  74.256  92.062  0.00  0.00     0.070 A 
ENDBRANCH  12  13
ENDBRANCH   1  12
TORSDOF 3
ENDMDL
MODEL 19
REMARK VINA RESULT:      -5.5     20.231     24.268
REMARK  3 active torsions:
REMARK  status: ('A' for Active; 'I' for Inactive)
REMARK    1  A    between atoms: C_7  and  C_9 
REMARK    2  A    between atoms: C_9  and  C_10 
REMARK    3  A    between atoms: C_10  and  C_11 
ROOT
ATOM      1  C   UNL d   1      63.383  87.456  91.758  0.00  0.00     0.233 C 
ATOM      2  O   UNL d   1      64.083  86.902  90.877  0.00  0.00    -0.278 OA
ENDROOT
BRANCH   1   3
ATOM      3  C   UNL d   1      61.968  87.152  91.759  0.00  0.00     0.085 C 
ATOM      4  C   UNL d   1      61.314  86.243  90.696  0.00  0.00     0.195 C 
ATOM      5  C   UNL d   1      59.873  86.644  90.344  0.00  0.00     0.017 C 
ATOM      6  O   UNL d   1      61.845  85.253  90.206  0.00  0.00    -0.287 OA
ATOM      7  C   UNL d   1      59.254  87.642  91.143  0.00  0.00    -0.005 C 
ATOM      8  C   UNL d   1      58.997  85.917  89.343  0.00  0.00     0.034 C 
ATOM      9  C   UNL d   1      59.689  88.380  92.267  0.00  0.00    -0.022 C 
ATOM     10  C   UNL d   1      58.743  88.612  93.409  0.00  0.00     0.031 C 
ATOM     11  C   UNL d   1      61.027  87.981  92.467  0.00  0.00     0.003 C 
ENDBRANCH   1   3
BRANCH   1  12
ATOM     12  C   UNL d   1      64.044  88.210  92.766  0.00  0.00    -0.060 C 
BRANCH  12  13
ATOM     13  C   UNL d   1      64.687  88.966  93.776  0.00  0.00     0.047 A 
ATOM     14  C   UNL d   1      64.904  88.643  95.134  0.00  0.00     0.070 A 
ATOM     15  C   UNL d   1      65.638  89.309  96.196  0.00  0.00     0.282 A 
ATOM     16  O   UNL d   1      65.644  88.783  97.305  0.00  0.00    -0.265 OA
ATOM     17  N   UNL d   1      66.262  90.468  95.876  0.00  0.00    -0.169 NA
ATOM     18  C   UNL d   1      66.182  90.952  94.613  0.00  0.00     0.282 A 
ATOM     19  O   UNL d   1      66.708  91.987  94.216  0.00  0.00    -0.265 OA
ATOM     20  C   UNL d   1      65.408  90.176  93.662  0.00  0.00     0.070 A 
ENDBRANCH  12  13
ENDBRANCH   1  12
TORSDOF 3
ENDMDL
MODEL 20
REMARK VINA RESULT:      -5.4      4.254      6.679
REMARK  3 active torsions:
REMARK  status: ('A' for Active; 'I' for Inactive)
REMARK    1  A    between atoms: C_7  and  C_9 
REMARK    2  A    between atoms: C_9  and  C_10 
REMARK    3  A    between atoms: C_10  and  C_11 
ROOT
ATOM      1  C   UNL d   1      53.144  72.570  80.148  0.00  0.00     0.233 C 
ATOM      2  O   UNL d   1      52.160  72.332  80.890  0.00  0.00    -0.278 OA
ENDROOT
BRANCH   1   3
ATOM      3  C   UNL d   1      52.858  73.015  78.801  0.00  0.00     0.085 C 
ATOM      4  C   UNL d   1      52.438  72.042  77.678  0.00  0.00     0.195 C 
ATOM      5  C   UNL d   1      52.939  72.455  76.285  0.00  0.00     0.017 C 
ATOM      6  O   UNL d   1      51.723  71.060  77.840  0.00  0.00    -0.287 OA
ATOM      7  C   UNL d   1      53.539  73.737  76.156  0.00  0.00    -0.005 C 
ATOM      8  C   UNL d   1      52.662  71.689  75.007  0.00  0.00     0.034 C 
ATOM      9  C   UNL d   1      53.776  74.785  77.074  0.00  0.00    -0.022 C 
ATOM     10  C   UNL d   1      53.534  76.205  76.652  0.00  0.00     0.031 C 
ATOM     11  C   UNL d   1      53.336  74.284  78.317  0.00  0.00     0.003 C 
ENDBRANCH   1   3
BRANCH   1  12
ATOM     12  C   UNL d   1      54.444  72.532  80.724  0.00  0.00    -0.060 C 
BRANCH  12  13
ATOM     13  C   UNL d   1      55.732  72.483  81.310  0.00  0.00     0.047 A 
ATOM     14  C   UNL d   1      56.092  72.455  82.675  0.00  0.00     0.070 A 
ATOM     15  C   UNL d   1      57.370  72.300  83.350  0.00  0.00     0.282 A 
ATOM     16  O   UNL d   1      57.376  72.323  84.576  0.00  0.00    -0.265 OA
ATOM     17  N   UNL d   1      58.462  72.141  82.564  0.00  0.00    -0.169 NA
ATOM     18  C   UNL d   1      58.329  72.133  81.216  0.00  0.00     0.282 A 
ATOM     19  O   UNL d   1      59.248  71.995  80.414  0.00  0.00    -0.265 OA
ATOM     20  C   UNL d   1      56.988  72.304  80.689  0.00  0.00     0.070 A 
ENDBRANCH  12  13
ENDBRANCH   1  12
TORSDOF 3
ENDMDL
