MODEL 1
REMARK VINA RESULT:      -7.0      0.000      0.000
REMARK  1 active torsions:
REMARK  status: ('A' for Active; 'I' for Inactive)
REMARK    1  A    between atoms: C1*_8  and  N9_10 
ROOT
ATOM      1  O5*  A1 d          76.063  75.861  90.610  0.00  0.00    -0.135 OA
ATOM      2  C5*  A1 d          75.569  74.565  90.516  0.00  0.00     0.085 C 
ATOM      3  C4*  A1 d          75.144  73.200  90.333  0.00  0.00     0.204 A 
ATOM      4  C3*  A1 d          74.171  72.347  91.056  0.00  0.00     0.270 A 
ATOM      5  O3*  A1 d          72.975  72.749  91.164  0.00  0.00    -0.280 OA
ATOM      6  C2*  A1 d          74.407  70.966  90.587  0.00  0.00     0.276 A 
ATOM      7  O2*  A1 d          74.377  69.964  91.358  0.00  0.00    -0.279 OA
ATOM      8  C1*  A1 d          75.494  71.032  89.623  0.00  0.00     0.214 A 
ATOM      9  O4*  A1 d          75.920  72.365  89.503  0.00  0.00    -0.275 OA
ENDROOT
BRANCH   8  10
ATOM     10  N9   A1 d          76.053  70.010  88.878  0.00  0.00    -0.250 N 
ATOM     11  C8   A1 d          75.794  69.720  87.548  0.00  0.00     0.186 A 
ATOM     12  N7   A1 d          76.476  68.691  87.073  0.00  0.00    -0.220 NA
ATOM     13  C5   A1 d          77.213  68.270  88.147  0.00  0.00     0.148 A 
ATOM     14  C6   A1 d          78.121  67.221  88.309  0.00  0.00     0.173 A 
ATOM     15  C4   A1 d          76.991  69.061  89.266  0.00  0.00     0.173 A 
ATOM     16  N6   A1 d          78.422  66.341  87.227  0.00  0.00    -0.078 NA
ATOM     17  N1   A1 d          78.736  67.013  89.497  0.00  0.00    -0.208 NA
ATOM     18  C2   A1 d          78.426  67.863  90.496  0.00  0.00     0.202 A 
ATOM     19  N3   A1 d          77.582  68.895  90.468  0.00  0.00    -0.205 NA
ENDBRANCH   8  10
TORSDOF 1
ENDMDL
MODEL 2
REMARK VINA RESULT:      -6.9     21.723     23.395
REMARK  1 active torsions:
REMARK  status: ('A' for Active; 'I' for Inactive)
REMARK    1  A    between atoms: C1*_8  and  N9_10 
ROOT
ATOM      1  O5*  A1 d          58.636  87.016  91.982  0.00  0.00    -0.135 OA
ATOM      2  C5*  A1 d          59.881  87.470  91.563  0.00  0.00     0.085 C 
ATOM      3  C4*  A1 d          61.173  88.015  91.228  0.00  0.00     0.204 A 
ATOM      4  C3*  A1 d          62.178  87.655  90.201  0.00  0.00     0.270 A 
ATOM      5  O3*  A1 d          61.824  87.640  88.984  0.00  0.00    -0.280 OA
ATOM      6  C2*  A1 d          63.414  88.381  90.561  0.00  0.00     0.276 A 
ATOM      7  O2*  A1 d          64.566  87.867  90.464  0.00  0.00    -0.279 OA
ATOM      8  C1*  A1 d          63.119  89.132  91.771  0.00  0.00     0.214 A 
ATOM      9  O4*  A1 d          61.790  88.886  92.151  0.00  0.00    -0.275 OA
ENDROOT
BRANCH   8  10
ATOM     10  N9   A1 d          63.939  89.995  92.475  0.00  0.00    -0.250 N 
ATOM     11  C8   A1 d          63.970  91.376  92.369  0.00  0.00     0.186 A 
ATOM     12  N7   A1 d          64.844  91.964  93.169  0.00  0.00    -0.220 NA
ATOM     13  C5   A1 d          65.431  90.917  93.828  0.00  0.00     0.148 A 
ATOM     14  C6   A1 d          66.440  90.863  94.792  0.00  0.00     0.173 A 
ATOM     15  C4   A1 d          64.894  89.697  93.439  0.00  0.00     0.173 A 
ATOM     16  N6   A1 d          67.067  92.055  95.262  0.00  0.00    -0.078 NA
ATOM     17  N1   A1 d          66.848  89.677  95.303  0.00  0.00    -0.208 NA
ATOM     18  C2   A1 d          66.234  88.573  94.835  0.00  0.00     0.202 A 
ATOM     19  N3   A1 d          65.265  88.493  93.922  0.00  0.00    -0.205 NA
ENDBRANCH   8  10
TORSDOF 1
ENDMDL
MODEL 3
REMARK VINA RESULT:      -6.7     22.078     23.330
REMARK  1 active torsions:
REMARK  status: ('A' for Active; 'I' for Inactive)
REMARK    1  A    between atoms: C1*_8  and  N9_10 
ROOT
ATOM      1  O5*  A1 d          65.640  89.002  97.393  0.00  0.00    -0.135 OA
ATOM      2  C5*  A1 d          65.364  89.500  96.125  0.00  0.00     0.085 C 
ATOM      3  C4*  A1 d          65.045  89.901  94.778  0.00  0.00     0.204 A 
ATOM      4  C3*  A1 d          64.934  91.226  94.126  0.00  0.00     0.270 A 
ATOM      5  O3*  A1 d          65.930  92.009  94.167  0.00  0.00    -0.280 OA
ATOM      6  C2*  A1 d          64.284  90.989  92.820  0.00  0.00     0.276 A 
ATOM      7  O2*  A1 d          63.410  91.766  92.337  0.00  0.00    -0.279 OA
ATOM      8  C1*  A1 d          64.024  89.561  92.735  0.00  0.00     0.214 A 
ATOM      9  O4*  A1 d          64.474  88.943  93.914  0.00  0.00    -0.275 OA
ENDROOT
BRANCH   8  10
ATOM     10  N9   A1 d          63.467  88.843  91.693  0.00  0.00    -0.250 N 
ATOM     11  C8   A1 d          64.114  88.420  90.543  0.00  0.00     0.186 A 
ATOM     12  N7   A1 d          63.347  87.737  89.709  0.00  0.00    -0.220 NA
ATOM     13  C5   A1 d          62.129  87.718  90.333  0.00  0.00     0.148 A 
ATOM     14  C6   A1 d          60.896  87.173  89.968  0.00  0.00     0.173 A 
ATOM     15  C4   A1 d          62.166  88.374  91.556  0.00  0.00     0.173 A 
ATOM     16  N6   A1 d          60.741  86.482  88.729  0.00  0.00    -0.078 NA
ATOM     17  N1   A1 d          59.819  87.288  90.780  0.00  0.00    -0.208 NA
ATOM     18  C2   A1 d          60.003  87.949  91.940  0.00  0.00     0.202 A 
ATOM     19  N3   A1 d          61.122  88.511  92.400  0.00  0.00    -0.205 NA
ENDBRANCH   8  10
TORSDOF 1
ENDMDL
MODEL 4
REMARK VINA RESULT:      -6.5     12.568     13.433
REMARK  1 active torsions:
REMARK  status: ('A' for Active; 'I' for Inactive)
REMARK    1  A    between atoms: C1*_8  and  N9_10 
ROOT
ATOM      1  O5*  A1 d          66.511  69.311  96.464  0.00  0.00    -0.135 OA
ATOM      2  C5*  A1 d          65.659  70.272  95.932  0.00  0.00     0.085 C 
ATOM      3  C4*  A1 d          64.842  71.260  95.274  0.00  0.00     0.204 A 
ATOM      4  C3*  A1 d          63.575  71.928  95.654  0.00  0.00     0.270 A 
ATOM      5  O3*  A1 d          63.526  72.558  96.752  0.00  0.00    -0.280 OA
ATOM      6  C2*  A1 d          63.085  72.606  94.436  0.00  0.00     0.276 A 
ATOM      7  O2*  A1 d          61.863  72.633  94.109  0.00  0.00    -0.279 OA
ATOM      8  C1*  A1 d          64.049  72.323  93.384  0.00  0.00     0.214 A 
ATOM      9  O4*  A1 d          65.071  71.514  93.906  0.00  0.00    -0.275 OA
ENDROOT
BRANCH   8  10
ATOM     10  N9   A1 d          64.055  72.766  92.074  0.00  0.00    -0.250 N 
ATOM     11  C8   A1 d          63.610  72.068  90.964  0.00  0.00     0.186 A 
ATOM     12  N7   A1 d          63.718  72.731  89.825  0.00  0.00    -0.220 NA
ATOM     13  C5   A1 d          64.275  73.924  90.199  0.00  0.00     0.148 A 
ATOM     14  C6   A1 d          64.656  75.052  89.468  0.00  0.00     0.173 A 
ATOM     15  C4   A1 d          64.484  73.988  91.570  0.00  0.00     0.173 A 
ATOM     16  N6   A1 d          64.493  75.094  88.052  0.00  0.00    -0.078 NA
ATOM     17  N1   A1 d          65.192  76.130  90.087  0.00  0.00    -0.208 NA
ATOM     18  C2   A1 d          65.332  76.054  91.425  0.00  0.00     0.202 A 
ATOM     19  N3   A1 d          65.010  75.041  92.231  0.00  0.00    -0.205 NA
ENDBRANCH   8  10
TORSDOF 1
ENDMDL
MODEL 5
REMARK VINA RESULT:      -6.4     22.203     23.861
REMARK  1 active torsions:
REMARK  status: ('A' for Active; 'I' for Inactive)
REMARK    1  A    between atoms: C1*_8  and  N9_10 
ROOT
ATOM      1  O5*  A1 d          57.076  87.488  90.469  0.00  0.00    -0.135 OA
ATOM      2  C5*  A1 d          58.466  87.479  90.466  0.00  0.00     0.085 C 
ATOM      3  C4*  A1 d          59.903  87.544  90.563  0.00  0.00     0.204 A 
ATOM      4  C3*  A1 d          60.989  86.817  89.865  0.00  0.00     0.270 A 
ATOM      5  O3*  A1 d          61.031  86.857  88.599  0.00  0.00    -0.280 OA
ATOM      6  C2*  A1 d          62.228  87.107  90.617  0.00  0.00     0.276 A 
ATOM      7  O2*  A1 d          63.115  86.234  90.841  0.00  0.00    -0.279 OA
ATOM      8  C1*  A1 d          61.853  87.975  91.721  0.00  0.00     0.214 A 
ATOM      9  O4*  A1 d          60.468  88.206  91.673  0.00  0.00    -0.275 OA
ENDROOT
BRANCH   8  10
ATOM     10  N9   A1 d          62.663  88.551  92.683  0.00  0.00    -0.250 N 
ATOM     11  C8   A1 d          62.991  88.013  93.916  0.00  0.00     0.186 A 
ATOM     12  N7   A1 d          63.798  88.769  94.642  0.00  0.00    -0.220 NA
ATOM     13  C5   A1 d          64.003  89.869  93.854  0.00  0.00     0.148 A 
ATOM     14  C6   A1 d          64.743  91.038  94.048  0.00  0.00     0.173 A 
ATOM     15  C4   A1 d          63.335  89.766  92.641  0.00  0.00     0.173 A 
ATOM     16  N6   A1 d          65.465  91.253  95.259  0.00  0.00    -0.078 NA
ATOM     17  N1   A1 d          64.792  91.994  93.091  0.00  0.00    -0.208 NA
ATOM     18  C2   A1 d          64.097  91.757  91.961  0.00  0.00     0.202 A 
ATOM     19  N3   A1 d          63.357  90.690  91.658  0.00  0.00    -0.205 NA
ENDBRANCH   8  10
TORSDOF 1
ENDMDL
MODEL 6
REMARK VINA RESULT:      -6.3      3.216      6.176
REMARK  1 active torsions:
REMARK  status: ('A' for Active; 'I' for Inactive)
REMARK    1  A    between atoms: C1*_8  and  N9_10 
ROOT
ATOM      1  O5*  A1 d          78.348  67.253  85.957  0.00  0.00    -0.135 OA
ATOM      2  C5*  A1 d          78.130  67.753  87.235  0.00  0.00     0.085 C 
ATOM      3  C4*  A1 d          77.827  68.354  88.510  0.00  0.00     0.204 A 
ATOM      4  C3*  A1 d          78.156  67.971  89.903  0.00  0.00     0.270 A 
ATOM      5  O3*  A1 d          79.373  67.816  90.219  0.00  0.00    -0.280 OA
ATOM      6  C2*  A1 d          77.308  68.813  90.773  0.00  0.00     0.276 A 
ATOM      7  O2*  A1 d          76.748  68.375  91.819  0.00  0.00    -0.279 OA
ATOM      8  C1*  A1 d          76.510  69.652  89.893  0.00  0.00     0.214 A 
ATOM      9  O4*  A1 d          76.828  69.349  88.559  0.00  0.00    -0.275 OA
ENDROOT
BRANCH   8  10
ATOM     10  N9   A1 d          75.595  70.633  90.228  0.00  0.00    -0.250 N 
ATOM     11  C8   A1 d          74.260  70.444  90.546  0.00  0.00     0.186 A 
ATOM     12  N7   A1 d          73.609  71.557  90.841  0.00  0.00    -0.220 NA
ATOM     13  C5   A1 d          74.558  72.533  90.699  0.00  0.00     0.148 A 
ATOM     14  C6   A1 d          74.507  73.920  90.851  0.00  0.00     0.173 A 
ATOM     15  C4   A1 d          75.790  72.005  90.337  0.00  0.00     0.173 A 
ATOM     16  N6   A1 d          73.291  74.571  91.214  0.00  0.00    -0.078 NA
ATOM     17  N1   A1 d          75.610  74.680  90.654  0.00  0.00    -0.208 NA
ATOM     18  C2   A1 d          76.740  74.031  90.309  0.00  0.00     0.202 A 
ATOM     19  N3   A1 d          76.916  72.720  90.134  0.00  0.00    -0.205 NA
ENDBRANCH   8  10
TORSDOF 1
ENDMDL
MODEL 7
REMARK VINA RESULT:      -6.3      2.282      3.901
REMARK  1 active torsions:
REMARK  status: ('A' for Active; 'I' for Inactive)
REMARK    1  A    between atoms: C1*_8  and  N9_10 
ROOT
ATOM      1  O5*  A1 d          73.980  71.313  91.226  0.00  0.00    -0.135 OA
ATOM      2  C5*  A1 d          74.870  70.812  90.282  0.00  0.00     0.085 C 
ATOM      3  C4*  A1 d          75.825  70.207  89.388  0.00  0.00     0.204 A 
ATOM      4  C3*  A1 d          76.119  70.408  87.950  0.00  0.00     0.270 A 
ATOM      5  O3*  A1 d          76.418  71.572  87.548  0.00  0.00    -0.280 OA
ATOM      6  C2*  A1 d          76.989  69.283  87.547  0.00  0.00     0.276 A 
ATOM      7  O2*  A1 d          76.872  68.687  86.437  0.00  0.00    -0.279 OA
ATOM      8  C1*  A1 d          77.179  68.458  88.729  0.00  0.00     0.214 A 
ATOM      9  O4*  A1 d          76.467  69.021  89.801  0.00  0.00    -0.275 OA
ENDROOT
BRANCH   8  10
ATOM     10  N9   A1 d          77.944  67.314  88.872  0.00  0.00    -0.250 N 
ATOM     11  C8   A1 d          77.693  66.076  88.304  0.00  0.00     0.186 A 
ATOM     12  N7   A1 d          78.594  65.152  88.593  0.00  0.00    -0.220 NA
ATOM     13  C5   A1 d          79.479  65.809  89.405  0.00  0.00     0.148 A 
ATOM     14  C6   A1 d          80.641  65.392  90.058  0.00  0.00     0.173 A 
ATOM     15  C4   A1 d          79.121  67.138  89.588  0.00  0.00     0.173 A 
ATOM     16  N6   A1 d          81.099  64.046  89.946  0.00  0.00    -0.078 NA
ATOM     17  N1   A1 d          81.358  66.255  90.816  0.00  0.00    -0.208 NA
ATOM     18  C2   A1 d          80.894  67.517  90.900  0.00  0.00     0.202 A 
ATOM     19  N3   A1 d          79.806  68.035  90.329  0.00  0.00    -0.205 NA
ENDBRANCH   8  10
TORSDOF 1
ENDMDL
MODEL 8
REMARK VINA RESULT:      -6.0     21.527     23.333
REMARK  1 active torsions:
REMARK  status: ('A' for Active; 'I' for Inactive)
REMARK    1  A    between atoms: C1*_8  and  N9_10 
ROOT
ATOM      1  O5*  A1 d          61.835  84.501  90.222  0.00  0.00    -0.135 OA
ATOM      2  C5*  A1 d          61.747  85.535  91.146  0.00  0.00     0.085 C 
ATOM      3  C4*  A1 d          61.769  86.641  92.071  0.00  0.00     0.204 A 
ATOM      4  C3*  A1 d          60.725  87.258  92.922  0.00  0.00     0.270 A 
ATOM      5  O3*  A1 d          60.103  86.526  93.748  0.00  0.00    -0.280 OA
ATOM      6  C2*  A1 d          61.290  88.535  93.406  0.00  0.00     0.276 A 
ATOM      7  O2*  A1 d          60.610  89.598  93.494  0.00  0.00    -0.279 OA
ATOM      8  C1*  A1 d          62.624  88.644  92.837  0.00  0.00     0.214 A 
ATOM      9  O4*  A1 d          62.876  87.515  92.040  0.00  0.00    -0.275 OA
ENDROOT
BRANCH   8  10
ATOM     10  N9   A1 d          63.566  89.639  93.024  0.00  0.00    -0.250 N 
ATOM     11  C8   A1 d          63.618  90.860  92.373  0.00  0.00     0.186 A 
ATOM     12  N7   A1 d          64.621  91.635  92.751  0.00  0.00    -0.220 NA
ATOM     13  C5   A1 d          65.273  90.883  93.690  0.00  0.00     0.148 A 
ATOM     14  C6   A1 d          66.417  91.122  94.456  0.00  0.00     0.173 A 
ATOM     15  C4   A1 d          64.650  89.659  93.894  0.00  0.00     0.173 A 
ATOM     16  N6   A1 d          67.142  92.344  94.324  0.00  0.00    -0.078 NA
ATOM     17  N1   A1 d          66.866  90.200  95.339  0.00  0.00    -0.208 NA
ATOM     18  C2   A1 d          66.157  89.057  95.435  0.00  0.00     0.202 A 
ATOM     19  N3   A1 d          65.057  88.711  94.764  0.00  0.00    -0.205 NA
ENDBRANCH   8  10
TORSDOF 1
ENDMDL
MODEL 9
REMARK VINA RESULT:      -6.0     12.718     13.822
REMARK  1 active torsions:
REMARK  status: ('A' for Active; 'I' for Inactive)
REMARK    1  A    between atoms: C1*_8  and  N9_10 
ROOT
ATOM      1  O5*  A1 d          76.271  82.946  94.882  0.00  0.00    -0.135 OA
ATOM      2  C5*  A1 d          77.243  82.456  95.747  0.00  0.00     0.085 C 
ATOM      3  C4*  A1 d          78.326  81.937  96.545  0.00  0.00     0.204 A 
ATOM      4  C3*  A1 d          78.524  81.815  98.008  0.00  0.00     0.270 A 
ATOM      5  O3*  A1 d          77.664  81.179  98.687  0.00  0.00    -0.280 OA
ATOM      6  C2*  A1 d          79.952  81.488  98.205  0.00  0.00     0.276 A 
ATOM      7  O2*  A1 d          80.649  81.984  99.137  0.00  0.00    -0.279 OA
ATOM      8  C1*  A1 d          80.553  81.432  96.881  0.00  0.00     0.214 A 
ATOM      9  O4*  A1 d          79.570  81.715  95.919  0.00  0.00    -0.275 OA
ENDROOT
BRANCH   8  10
ATOM     10  N9   A1 d          81.856  81.124  96.536  0.00  0.00    -0.250 N 
ATOM     11  C8   A1 d          82.836  82.015  96.130  0.00  0.00     0.186 A 
ATOM     12  N7   A1 d          84.005  81.455  95.869  0.00  0.00    -0.220 NA
ATOM     13  C5   A1 d          83.785  80.125  96.102  0.00  0.00     0.148 A 
ATOM     14  C6   A1 d          84.610  79.003  95.995  0.00  0.00     0.173 A 
ATOM     15  C4   A1 d          82.484  79.884  96.524  0.00  0.00     0.173 A 
ATOM     16  N6   A1 d          85.964  79.132  95.564  0.00  0.00    -0.078 NA
ATOM     17  N1   A1 d          84.145  77.768  96.295  0.00  0.00    -0.208 NA
ATOM     18  C2   A1 d          82.861  77.685  96.696  0.00  0.00     0.202 A 
ATOM     19  N3   A1 d          81.977  78.674  96.838  0.00  0.00    -0.205 NA
ENDBRANCH   8  10
TORSDOF 1
ENDMDL
MODEL 10
REMARK VINA RESULT:      -5.9      1.497      2.386
REMARK  1 active torsions:
REMARK  status: ('A' for Active; 'I' for Inactive)
REMARK    1  A    between atoms: C1*_8  and  N9_10 
ROOT
ATOM      1  O5*  A1 d          78.225  74.909  91.197  0.00  0.00    -0.135 OA
ATOM      2  C5*  A1 d          77.478  73.750  91.023  0.00  0.00     0.085 C 
ATOM      3  C4*  A1 d          76.809  72.491  90.811  0.00  0.00     0.204 A 
ATOM      4  C3*  A1 d          75.428  72.030  91.085  0.00  0.00     0.270 A 
ATOM      5  O3*  A1 d          74.461  72.676  90.582  0.00  0.00    -0.280 OA
ATOM      6  C2*  A1 d          75.446  70.560  90.930  0.00  0.00     0.276 A 
ATOM      7  O2*  A1 d          74.815  69.781  91.701  0.00  0.00    -0.279 OA
ATOM      8  C1*  A1 d          76.809  70.194  90.581  0.00  0.00     0.214 A 
ATOM      9  O4*  A1 d          77.597  71.355  90.531  0.00  0.00    -0.275 OA
ENDROOT
BRANCH   8  10
ATOM     10  N9   A1 d          77.322  68.942  90.295  0.00  0.00    -0.250 N 
ATOM     11  C8   A1 d          77.682  67.968  91.212  0.00  0.00     0.186 A 
ATOM     12  N7   A1 d          78.136  66.851  90.668  0.00  0.00    -0.220 NA
ATOM     13  C5   A1 d          78.085  67.104  89.324  0.00  0.00     0.148 A 
ATOM     14  C6   A1 d          78.439  66.338  88.210  0.00  0.00     0.173 A 
ATOM     15  C4   A1 d          77.580  68.369  89.056  0.00  0.00     0.173 A 
ATOM     16  N6   A1 d          78.975  65.025  88.367  0.00  0.00    -0.078 NA
ATOM     17  N1   A1 d          78.285  66.824  86.957  0.00  0.00    -0.208 NA
ATOM     18  C2   A1 d          77.778  68.068  86.847  0.00  0.00     0.202 A 
ATOM     19  N3   A1 d          77.404  68.895  87.826  0.00  0.00    -0.205 NA
ENDBRANCH   8  10
TORSDOF 1
ENDMDL
MODEL 11
REMARK VINA RESULT:      -5.9     18.288     21.375
REMARK  1 active torsions:
REMARK  status: ('A' for Active; 'I' for Inactive)
REMARK    1  A    between atoms: C1*_8  and  N9_10 
ROOT
ATOM      1  O5*  A1 d          70.734  84.878  91.976  0.00  0.00    -0.135 OA
ATOM      2  C5*  A1 d          69.698  85.361  92.767  0.00  0.00     0.085 C 
ATOM      3  C4*  A1 d          68.620  85.961  93.514  0.00  0.00     0.204 A 
ATOM      4  C3*  A1 d          67.750  85.455  94.601  0.00  0.00     0.270 A 
ATOM      5  O3*  A1 d          68.292  85.015  95.658  0.00  0.00    -0.280 OA
ATOM      6  C2*  A1 d          66.647  86.431  94.733  0.00  0.00     0.276 A 
ATOM      7  O2*  A1 d          65.448  86.088  94.939  0.00  0.00    -0.279 OA
ATOM      8  C1*  A1 d          66.883  87.465  93.738  0.00  0.00     0.214 A 
ATOM      9  O4*  A1 d          68.050  87.154  93.022  0.00  0.00    -0.275 OA
ENDROOT
BRANCH   8  10
ATOM     10  N9   A1 d          66.152  88.613  93.494  0.00  0.00    -0.250 N 
ATOM     11  C8   A1 d          66.211  89.797  94.210  0.00  0.00     0.186 A 
ATOM     12  N7   A1 d          65.411  90.748  93.755  0.00  0.00    -0.220 NA
ATOM     13  C5   A1 d          64.782  90.158  92.692  0.00  0.00     0.148 A 
ATOM     14  C6   A1 d          63.811  90.621  91.802  0.00  0.00     0.173 A 
ATOM     15  C4   A1 d          65.219  88.855  92.493  0.00  0.00     0.173 A 
ATOM     16  N6   A1 d          63.285  91.942  91.916  0.00  0.00    -0.078 NA
ATOM     17  N1   A1 d          63.345  89.827  90.810  0.00  0.00    -0.208 NA
ATOM     18  C2   A1 d          63.863  88.585  90.734  0.00  0.00     0.202 A 
ATOM     19  N3   A1 d          64.787  88.028  91.518  0.00  0.00    -0.205 NA
ENDBRANCH   8  10
TORSDOF 1
ENDMDL
MODEL 12
REMARK VINA RESULT:      -5.9     12.645     14.673
REMARK  1 active torsions:
REMARK  status: ('A' for Active; 'I' for Inactive)
REMARK    1  A    between atoms: C1*_8  and  N9_10 
ROOT
ATOM      1  O5*  A1 d          86.291  81.139  94.848  0.00  0.00    -0.135 OA
ATOM      2  C5*  A1 d          85.132  80.588  95.381  0.00  0.00     0.085 C 
ATOM      3  C4*  A1 d          83.890  80.133  95.956  0.00  0.00     0.204 A 
ATOM      4  C3*  A1 d          83.255  78.798  96.040  0.00  0.00     0.270 A 
ATOM      5  O3*  A1 d          83.900  77.850  96.579  0.00  0.00    -0.280 OA
ATOM      6  C2*  A1 d          81.861  79.032  96.473  0.00  0.00     0.276 A 
ATOM      7  O2*  A1 d          80.878  78.391  96.001  0.00  0.00    -0.279 OA
ATOM      8  C1*  A1 d          81.707  80.470  96.627  0.00  0.00     0.214 A 
ATOM      9  O4*  A1 d          82.921  81.097  96.301  0.00  0.00    -0.275 OA
ENDROOT
BRANCH   8  10
ATOM     10  N9   A1 d          80.600  81.181  97.051  0.00  0.00    -0.250 N 
ATOM     11  C8   A1 d          80.422  81.769  98.293  0.00  0.00     0.186 A 
ATOM     12  N7   A1 d          79.270  82.403  98.435  0.00  0.00    -0.220 NA
ATOM     13  C5   A1 d          78.649  82.214  97.230  0.00  0.00     0.148 A 
ATOM     14  C6   A1 d          77.403  82.615  96.743  0.00  0.00     0.173 A 
ATOM     15  C4   A1 d          79.437  81.481  96.353  0.00  0.00     0.173 A 
ATOM     16  N6   A1 d          76.507  83.367  97.560  0.00  0.00    -0.078 NA
ATOM     17  N1   A1 d          77.014  82.298  95.486  0.00  0.00    -0.208 NA
ATOM     18  C2   A1 d          77.885  81.586  94.744  0.00  0.00     0.202 A 
ATOM     19  N3   A1 d          79.095  81.145  95.091  0.00  0.00    -0.205 NA
ENDBRANCH   8  10
TORSDOF 1
ENDMDL
MODEL 13
REMARK VINA RESULT:      -5.8      3.507      6.424
REMARK  1 active torsions:
REMARK  status: ('A' for Active; 'I' for Inactive)
REMARK    1  A    between atoms: C1*_8  and  N9_10 
ROOT
ATOM      1  O5*  A1 d          81.916  66.287  91.351  0.00  0.00    -0.135 OA
ATOM      2  C5*  A1 d          80.692  66.560  90.750  0.00  0.00     0.085 C 
ATOM      3  C4*  A1 d          79.400  66.920  90.222  0.00  0.00     0.204 A 
ATOM      4  C3*  A1 d          78.733  66.642  88.929  0.00  0.00     0.270 A 
ATOM      5  O3*  A1 d          78.592  65.437  88.564  0.00  0.00    -0.280 OA
ATOM      6  C2*  A1 d          77.555  67.533  88.874  0.00  0.00     0.276 A 
ATOM      7  O2*  A1 d          77.192  68.128  87.818  0.00  0.00    -0.279 OA
ATOM      8  C1*  A1 d          77.556  68.304  90.107  0.00  0.00     0.214 A 
ATOM      9  O4*  A1 d          78.668  67.930  90.879  0.00  0.00    -0.275 OA
ENDROOT
BRANCH   8  10
ATOM     10  N9   A1 d          76.638  69.242  90.541  0.00  0.00    -0.250 N 
ATOM     11  C8   A1 d          75.699  69.075  91.546  0.00  0.00     0.186 A 
ATOM     12  N7   A1 d          74.948  70.140  91.772  0.00  0.00    -0.220 NA
ATOM     13  C5   A1 d          75.405  71.054  90.861  0.00  0.00     0.148 A 
ATOM     14  C6   A1 d          75.021  72.366  90.574  0.00  0.00     0.173 A 
ATOM     15  C4   A1 d          76.448  70.545  90.098  0.00  0.00     0.173 A 
ATOM     16  N6   A1 d          73.956  72.988  91.291  0.00  0.00    -0.078 NA
ATOM     17  N1   A1 d          75.647  73.077  89.607  0.00  0.00    -0.208 NA
ATOM     18  C2   A1 d          76.647  72.456  88.950  0.00  0.00     0.202 A 
ATOM     19  N3   A1 d          77.105  71.216  89.129  0.00  0.00    -0.205 NA
ENDBRANCH   8  10
TORSDOF 1
ENDMDL
MODEL 14
REMARK VINA RESULT:      -5.8     21.191     22.672
REMARK  1 active torsions:
REMARK  status: ('A' for Active; 'I' for Inactive)
REMARK    1  A    between atoms: C1*_8  and  N9_10 
ROOT
ATOM      1  O5*  A1 d          60.483  70.891  74.112  0.00  0.00    -0.135 OA
ATOM      2  C5*  A1 d          59.300  71.354  74.678  0.00  0.00     0.085 C 
ATOM      3  C4*  A1 d          58.111  71.782  75.371  0.00  0.00     0.204 A 
ATOM      4  C3*  A1 d          56.996  72.680  74.989  0.00  0.00     0.270 A 
ATOM      5  O3*  A1 d          56.339  72.420  73.938  0.00  0.00    -0.280 OA
ATOM      6  C2*  A1 d          56.247  72.957  76.233  0.00  0.00     0.276 A 
ATOM      7  O2*  A1 d          55.777  74.098  76.512  0.00  0.00    -0.279 OA
ATOM      8  C1*  A1 d          56.925  72.237  77.299  0.00  0.00     0.214 A 
ATOM      9  O4*  A1 d          58.033  71.561  76.762  0.00  0.00    -0.275 OA
ENDROOT
BRANCH   8  10
ATOM     10  N9   A1 d          56.584  72.149  78.636  0.00  0.00    -0.250 N 
ATOM     11  C8   A1 d          55.323  71.901  79.152  0.00  0.00     0.186 A 
ATOM     12  N7   A1 d          55.276  71.856  80.474  0.00  0.00    -0.220 NA
ATOM     13  C5   A1 d          56.569  72.098  80.850  0.00  0.00     0.148 A 
ATOM     14  C6   A1 d          57.178  72.199  82.103  0.00  0.00     0.173 A 
ATOM     15  C4   A1 d          57.402  72.270  79.753  0.00  0.00     0.173 A 
ATOM     16  N6   A1 d          56.417  72.046  83.300  0.00  0.00    -0.078 NA
ATOM     17  N1   A1 d          58.505  72.446  82.211  0.00  0.00    -0.208 NA
ATOM     18  C2   A1 d          59.191  72.587  81.060  0.00  0.00     0.202 A 
ATOM     19  N3   A1 d          58.728  72.514  79.811  0.00  0.00    -0.205 NA
ENDBRANCH   8  10
TORSDOF 1
ENDMDL
MODEL 15
REMARK VINA RESULT:      -5.8     12.073     14.190
REMARK  1 active torsions:
REMARK  status: ('A' for Active; 'I' for Inactive)
REMARK    1  A    between atoms: C1*_8  and  N9_10 
ROOT
ATOM      1  O5*  A1 d          79.286  74.375 100.564  0.00  0.00    -0.135 OA
ATOM      2  C5*  A1 d          79.685  75.350  99.658  0.00  0.00     0.085 C 
ATOM      3  C4*  A1 d          80.020  76.438  98.774  0.00  0.00     0.204 A 
ATOM      4  C3*  A1 d          81.074  76.608  97.747  0.00  0.00     0.270 A 
ATOM      5  O3*  A1 d          81.144  75.765  96.803  0.00  0.00    -0.280 OA
ATOM      6  C2*  A1 d          81.088  78.046  97.404  0.00  0.00     0.276 A 
ATOM      7  O2*  A1 d          82.155  78.694  97.204  0.00  0.00    -0.279 OA
ATOM      8  C1*  A1 d          80.068  78.680  98.225  0.00  0.00     0.214 A 
ATOM      9  O4*  A1 d          79.461  77.706  99.035  0.00  0.00    -0.275 OA
ENDROOT
BRANCH   8  10
ATOM     10  N9   A1 d          79.672  80.005  98.242  0.00  0.00    -0.250 N 
ATOM     11  C8   A1 d          80.007  80.955  99.192  0.00  0.00     0.186 A 
ATOM     12  N7   A1 d          79.502  82.156  98.962  0.00  0.00    -0.220 NA
ATOM     13  C5   A1 d          78.786  81.988  97.808  0.00  0.00     0.148 A 
ATOM     14  C6   A1 d          78.007  82.865  97.051  0.00  0.00     0.173 A 
ATOM     15  C4   A1 d          78.876  80.687  97.330  0.00  0.00     0.173 A 
ATOM     16  N6   A1 d          77.838  84.224  97.452  0.00  0.00    -0.078 NA
ATOM     17  N1   A1 d          77.391  82.448  95.920  0.00  0.00    -0.208 NA
ATOM     18  C2   A1 d          77.571  81.158  95.574  0.00  0.00     0.202 A 
ATOM     19  N3   A1 d          78.285  80.226  96.208  0.00  0.00    -0.205 NA
ENDBRANCH   8  10
TORSDOF 1
ENDMDL
MODEL 16
REMARK VINA RESULT:      -5.8     11.802     13.134
REMARK  1 active torsions:
REMARK  status: ('A' for Active; 'I' for Inactive)
REMARK    1  A    between atoms: C1*_8  and  N9_10 
ROOT
ATOM      1  O5*  A1 d          77.682  83.074  96.866  0.00  0.00    -0.135 OA
ATOM      2  C5*  A1 d          78.300  81.887  97.240  0.00  0.00     0.085 C 
ATOM      3  C4*  A1 d          79.011  80.665  97.525  0.00  0.00     0.204 A 
ATOM      4  C3*  A1 d          79.037  79.773  98.707  0.00  0.00     0.270 A 
ATOM      5  O3*  A1 d          77.945  79.284  99.123  0.00  0.00    -0.280 OA
ATOM      6  C2*  A1 d          80.183  78.861  98.510  0.00  0.00     0.276 A 
ATOM      7  O2*  A1 d          80.955  78.514  99.450  0.00  0.00    -0.279 OA
ATOM      8  C1*  A1 d          80.799  79.232  97.245  0.00  0.00     0.214 A 
ATOM      9  O4*  A1 d          80.092  80.312  96.691  0.00  0.00    -0.275 OA
ENDROOT
BRANCH   8  10
ATOM     10  N9   A1 d          81.877  78.650  96.605  0.00  0.00    -0.250 N 
ATOM     11  C8   A1 d          81.962  77.344  96.150  0.00  0.00     0.186 A 
ATOM     12  N7   A1 d          83.108  77.048  95.559  0.00  0.00    -0.220 NA
ATOM     13  C5   A1 d          83.822  78.213  95.638  0.00  0.00     0.148 A 
ATOM     14  C6   A1 d          85.108  78.556  95.216  0.00  0.00     0.173 A 
ATOM     15  C4   A1 d          83.097  79.220  96.260  0.00  0.00     0.173 A 
ATOM     16  N6   A1 d          85.945  77.598  94.570  0.00  0.00    -0.078 NA
ATOM     17  N1   A1 d          85.592  79.805  95.411  0.00  0.00    -0.208 NA
ATOM     18  C2   A1 d          84.774  80.683  96.025  0.00  0.00     0.202 A 
ATOM     19  N3   A1 d          83.534  80.479  96.473  0.00  0.00    -0.205 NA
ENDBRANCH   8  10
TORSDOF 1
ENDMDL
MODEL 17
REMARK VINA RESULT:      -5.8     18.668     20.892
REMARK  1 active torsions:
REMARK  status: ('A' for Active; 'I' for Inactive)
REMARK    1  A    between atoms: C1*_8  and  N9_10 
ROOT
ATOM      1  O5*  A1 d          68.893  87.953  97.528  0.00  0.00    -0.135 OA
ATOM      2  C5*  A1 d          68.672  87.421  96.263  0.00  0.00     0.085 C 
ATOM      3  C4*  A1 d          68.328  86.917  94.957  0.00  0.00     0.204 A 
ATOM      4  C3*  A1 d          69.131  86.288  93.882  0.00  0.00     0.270 A 
ATOM      5  O3*  A1 d          69.801  85.247  94.153  0.00  0.00    -0.280 OA
ATOM      6  C2*  A1 d          68.269  86.273  92.680  0.00  0.00     0.276 A 
ATOM      7  O2*  A1 d          68.705  86.522  91.520  0.00  0.00    -0.279 OA
ATOM      8  C1*  A1 d          67.007  86.886  93.064  0.00  0.00     0.214 A 
ATOM      9  O4*  A1 d          67.076  87.270  94.413  0.00  0.00    -0.275 OA
ENDROOT
BRANCH   8  10
ATOM     10  N9   A1 d          65.868  87.068  92.303  0.00  0.00    -0.250 N 
ATOM     11  C8   A1 d          65.212  86.105  91.554  0.00  0.00     0.186 A 
ATOM     12  N7   A1 d          64.133  86.544  90.927  0.00  0.00    -0.220 NA
ATOM     13  C5   A1 d          64.080  87.869  91.268  0.00  0.00     0.148 A 
ATOM     14  C6   A1 d          63.195  88.892  90.923  0.00  0.00     0.173 A 
ATOM     15  C4   A1 d          65.118  88.224  92.119  0.00  0.00     0.173 A 
ATOM     16  N6   A1 d          62.095  88.643  90.049  0.00  0.00    -0.078 NA
ATOM     17  N1   A1 d          63.360  90.145  91.408  0.00  0.00    -0.208 NA
ATOM     18  C2   A1 d          64.410  90.344  92.228  0.00  0.00     0.202 A 
ATOM     19  N3   A1 d          65.321  89.456  92.631  0.00  0.00    -0.205 NA
ENDBRANCH   8  10
TORSDOF 1
ENDMDL
MODEL 18
REMARK VINA RESULT:      -5.7     21.223     22.799
REMARK  1 active torsions:
REMARK  status: ('A' for Active; 'I' for Inactive)
REMARK    1  A    between atoms: C1*_8  and  N9_10 
ROOT
ATOM      1  O5*  A1 d          64.527  92.314  97.854  0.00  0.00    -0.135 OA
ATOM      2  C5*  A1 d          64.774  91.284  96.953  0.00  0.00     0.085 C 
ATOM      3  C4*  A1 d          64.935  90.260  95.952  0.00  0.00     0.204 A 
ATOM      4  C3*  A1 d          65.984  89.240  95.721  0.00  0.00     0.270 A 
ATOM      5  O3*  A1 d          66.260  88.429  96.655  0.00  0.00    -0.280 OA
ATOM      6  C2*  A1 d          65.737  88.694  94.370  0.00  0.00     0.276 A 
ATOM      7  O2*  A1 d          66.668  88.423  93.557  0.00  0.00    -0.279 OA
ATOM      8  C1*  A1 d          64.576  89.394  93.843  0.00  0.00     0.214 A 
ATOM      9  O4*  A1 d          64.130  90.324  94.796  0.00  0.00    -0.275 OA
ENDROOT
BRANCH   8  10
ATOM     10  N9   A1 d          63.932  89.211  92.633  0.00  0.00    -0.250 N 
ATOM     11  C8   A1 d          63.761  90.159  91.637  0.00  0.00     0.186 A 
ATOM     12  N7   A1 d          63.116  89.717  90.570  0.00  0.00    -0.220 NA
ATOM     13  C5   A1 d          62.834  88.414  90.882  0.00  0.00     0.148 A 
ATOM     14  C6   A1 d          62.159  87.408  90.187  0.00  0.00     0.173 A 
ATOM     15  C4   A1 d          63.328  88.065  92.131  0.00  0.00     0.173 A 
ATOM     16  N6   A1 d          61.604  87.657  88.897  0.00  0.00    -0.078 NA
ATOM     17  N1   A1 d          62.015  86.173  90.722  0.00  0.00    -0.208 NA
ATOM     18  C2   A1 d          62.551  85.975  91.943  0.00  0.00     0.202 A 
ATOM     19  N3   A1 d          63.213  86.848  92.703  0.00  0.00    -0.205 NA
ENDBRANCH   8  10
TORSDOF 1
ENDMDL
MODEL 19
REMARK VINA RESULT:      -5.6     11.944     13.900
REMARK  1 active torsions:
REMARK  status: ('A' for Active; 'I' for Inactive)
REMARK    1  A    between atoms: C1*_8  and  N9_10 
ROOT
ATOM      1  O5*  A1 d          86.314  80.510  95.241  0.00  0.00    -0.135 OA
ATOM      2  C5*  A1 d          85.075  79.880  95.218  0.00  0.00     0.085 C 
ATOM      3  C4*  A1 d          83.774  79.267  95.311  0.00  0.00     0.204 A 
ATOM      4  C3*  A1 d          82.905  78.602  94.312  0.00  0.00     0.270 A 
ATOM      5  O3*  A1 d          83.368  77.617  93.664  0.00  0.00    -0.280 OA
ATOM      6  C2*  A1 d          81.579  78.460  94.949  0.00  0.00     0.276 A 
ATOM      7  O2*  A1 d          80.494  78.646  94.326  0.00  0.00    -0.279 OA
ATOM      8  C1*  A1 d          81.691  79.038  96.279  0.00  0.00     0.214 A 
ATOM      9  O4*  A1 d          82.998  79.520  96.461  0.00  0.00    -0.275 OA
ENDROOT
BRANCH   8  10
ATOM     10  N9   A1 d          80.733  79.110  97.274  0.00  0.00    -0.250 N 
ATOM     11  C8   A1 d          80.603  78.257  98.358  0.00  0.00     0.186 A 
ATOM     12  N7   A1 d          79.603  78.560  99.170  0.00  0.00    -0.220 NA
ATOM     13  C5   A1 d          79.036  79.660  98.587  0.00  0.00     0.148 A 
ATOM     14  C6   A1 d          77.938  80.448  98.938  0.00  0.00     0.173 A 
ATOM     15  C4   A1 d          79.708  80.034  97.431  0.00  0.00     0.173 A 
ATOM     16  N6   A1 d          77.169  80.151 100.104  0.00  0.00    -0.078 NA
ATOM     17  N1   A1 d          77.574  81.509  98.181  0.00  0.00    -0.208 NA
ATOM     18  C2   A1 d          78.322  81.757  97.087  0.00  0.00     0.202 A 
ATOM     19  N3   A1 d          79.387  81.085  96.647  0.00  0.00    -0.205 NA
ENDBRANCH   8  10
TORSDOF 1
ENDMDL
MODEL 20
REMARK VINA RESULT:      -5.5     12.708     14.229
REMARK  1 active torsions:
REMARK  status: ('A' for Active; 'I' for Inactive)
REMARK    1  A    between atoms: C1*_8  and  N9_10 
ROOT
ATOM      1  O5*  A1 d          86.618  81.320  94.558  0.00  0.00    -0.135 OA
ATOM      2  C5*  A1 d          85.540  80.603  95.063  0.00  0.00     0.085 C 
ATOM      3  C4*  A1 d          84.357  79.965  95.585  0.00  0.00     0.204 A 
ATOM      4  C3*  A1 d          84.008  78.547  95.832  0.00  0.00     0.270 A 
ATOM      5  O3*  A1 d          84.761  77.858  96.583  0.00  0.00    -0.280 OA
ATOM      6  C2*  A1 d          82.552  78.519  96.085  0.00  0.00     0.276 A 
ATOM      7  O2*  A1 d          81.794  77.611  95.635  0.00  0.00    -0.279 OA
ATOM      8  C1*  A1 d          82.083  79.891  95.977  0.00  0.00     0.214 A 
ATOM      9  O4*  A1 d          83.171  80.724  95.667  0.00  0.00    -0.275 OA
ENDROOT
BRANCH   8  10
ATOM     10  N9   A1 d          80.806  80.386  96.167  0.00  0.00    -0.250 N 
ATOM     11  C8   A1 d          80.009  81.002  95.216  0.00  0.00     0.186 A 
ATOM     12  N7   A1 d          78.819  81.372  95.661  0.00  0.00    -0.220 NA
ATOM     13  C5   A1 d          78.836  80.994  96.976  0.00  0.00     0.148 A 
ATOM     14  C6   A1 d          77.893  81.116  98.000  0.00  0.00     0.173 A 
ATOM     15  C4   A1 d          80.030  80.376  97.320  0.00  0.00     0.173 A 
ATOM     16  N6   A1 d          76.633  81.740  97.761  0.00  0.00    -0.078 NA
ATOM     17  N1   A1 d          78.154  80.646  99.242  0.00  0.00    -0.208 NA
ATOM     18  C2   A1 d          79.355  80.064  99.430  0.00  0.00     0.202 A 
ATOM     19  N3   A1 d          80.334  79.889  98.541  0.00  0.00    -0.205 NA
ENDBRANCH   8  10
TORSDOF 1
ENDMDL
