MODEL 1
REMARK VINA RESULT:      -8.6      0.000      0.000
REMARK  6 active torsions:
REMARK  status: ('A' for Active; 'I' for Inactive)
REMARK    1  A    between atoms: C_3  and  N_9 
REMARK    2  A    between atoms: N_9  and  C_10 
REMARK       I    between atoms: N_9  and  C_25 
REMARK    3  A    between atoms: C_10  and  C_11 
REMARK       I    between atoms: C_11  and  N_13 
REMARK    4  A    between atoms: N_13  and  C_14 
REMARK    5  A    between atoms: C_17  and  C_20 
REMARK    6  A    between atoms: C_25  and  C_27 
ROOT
ATOM      1  N   UNL d   1      77.224  70.307  89.433  0.00  0.00    -0.237 N 
ATOM      2  C   UNL d   1      78.383  71.058  89.263  0.00  0.00     0.271 C 
ATOM      3  O   UNL d   1      79.399  70.608  88.720  0.00  0.00    -0.266 OA
ENDROOT
BRANCH   1   4
ATOM      4  C   UNL d   1      77.296  68.922  89.078  0.00  0.00     0.067 A 
ATOM      5  C   UNL d   1      77.842  67.972  89.959  0.00  0.00    -0.005 A 
ATOM      6  C   UNL d   1      78.226  68.272  91.391  0.00  0.00     0.033 C 
ATOM      7  C   UNL d   1      77.961  66.633  89.576  0.00  0.00    -0.003 A 
ATOM      8  C   UNL d   1      77.536  66.215  88.321  0.00  0.00    -0.001 A 
ATOM      9  C   UNL d   1      76.964  67.137  87.455  0.00  0.00    -0.003 A 
ATOM     10  C   UNL d   1      76.839  68.479  87.824  0.00  0.00    -0.005 A 
ATOM     11  C   UNL d   1      76.207  69.390  86.790  0.00  0.00     0.033 C 
ENDBRANCH   1   4
BRANCH   1  12
ATOM     12  C   UNL d   1      75.994  70.658  89.901  0.00  0.00     0.045 C 
BRANCH  12  13
ATOM     13  C   UNL d   1      74.775  71.181  90.475  0.00  0.00     0.332 C 
ATOM     14  O   UNL d   1      73.726  70.701  90.061  0.00  0.00    -0.255 OA
ATOM     15  N   UNL d   1      74.980  72.135  91.384  0.00  0.00    -0.200 NA
BRANCH  15  16
ATOM     16  C   UNL d   1      74.168  73.214  91.271  0.00  0.00     0.085 A 
ATOM     17  C   UNL d   1      74.627  74.473  90.850  0.00  0.00     0.019 A 
ATOM     18  C   UNL d   1      73.777  75.571  90.753  0.00  0.00     0.005 A 
ATOM     19  C   UNL d   1      72.431  75.442  91.084  0.00  0.00     0.038 A 
ATOM     20  C   UNL d   1      71.959  74.211  91.537  0.00  0.00     0.005 A 
ATOM     21  C   UNL d   1      72.823  73.119  91.642  0.00  0.00     0.019 A 
BRANCH  19  22
ATOM     22  C   UNL d   1      71.532  76.567  90.943  0.00  0.00     0.191 A 
ATOM     23  N   UNL d   1      71.478  77.353  89.852  0.00  0.00    -0.105 NA
ATOM     24  O   UNL d   1      70.478  78.272  90.153  0.00  0.00    -0.186 OA
ATOM     25  C   UNL d   1      70.019  77.956  91.397  0.00  0.00     0.252 A 
ATOM     26  N   UNL d   1      70.632  76.926  91.927  0.00  0.00    -0.196 NA
ENDBRANCH  19  22
ENDBRANCH  15  16
ENDBRANCH  12  13
ENDBRANCH   1  12
BRANCH   2  27
ATOM     27  C   UNL d   1      78.378  72.469  89.738  0.00  0.00     0.059 A 
ATOM     28  C   UNL d   1      78.432  72.929  91.102  0.00  0.00     0.017 A 
ATOM     29  C   UNL d   1      78.749  74.333  91.664  0.00  0.00     0.099 A 
ATOM     30  S   UNL d   1      79.156  75.813  90.775  0.00  0.00     0.211 S 
ATOM     31  O   UNL d   1      78.004  76.662  90.853  0.00  0.00    -0.217 OA
ATOM     32  O   UNL d   1      80.564  76.010  90.958  0.00  0.00    -0.217 OA
ATOM     33  C   UNL d   1      79.030  75.055  89.163  0.00  0.00     0.099 A 
ATOM     34  C   UNL d   1      78.679  73.578  88.860  0.00  0.00     0.017 A 
ENDBRANCH   2  27
TORSDOF 6
ENDMDL
MODEL 2
REMARK VINA RESULT:      -8.1      9.927     12.867
REMARK  6 active torsions:
REMARK  status: ('A' for Active; 'I' for Inactive)
REMARK    1  A    between atoms: C_3  and  N_9 
REMARK    2  A    between atoms: N_9  and  C_10 
REMARK       I    between atoms: N_9  and  C_25 
REMARK    3  A    between atoms: C_10  and  C_11 
REMARK       I    between atoms: C_11  and  N_13 
REMARK    4  A    between atoms: N_13  and  C_14 
REMARK    5  A    between atoms: C_17  and  C_20 
REMARK    6  A    between atoms: C_25  and  C_27 
ROOT
ATOM      1  N   UNL d   1      80.572  80.721  96.510  0.00  0.00    -0.237 N 
ATOM      2  C   UNL d   1      81.349  81.875  96.459  0.00  0.00     0.271 C 
ATOM      3  O   UNL d   1      80.920  82.986  96.790  0.00  0.00    -0.266 OA
ENDROOT
BRANCH   1   4
ATOM      4  C   UNL d   1      79.187  80.891  96.832  0.00  0.00     0.067 A 
ATOM      5  C   UNL d   1      78.739  80.853  98.164  0.00  0.00    -0.005 A 
ATOM      6  C   UNL d   1      79.660  80.813  99.363  0.00  0.00     0.033 C 
ATOM      7  C   UNL d   1      77.377  80.960  98.459  0.00  0.00    -0.003 A 
ATOM      8  C   UNL d   1      76.443  81.114  97.443  0.00  0.00    -0.001 A 
ATOM      9  C   UNL d   1      76.875  81.188  96.126  0.00  0.00    -0.003 A 
ATOM     10  C   UNL d   1      78.234  81.081  95.816  0.00  0.00    -0.005 A 
ATOM     11  C   UNL d   1      78.581  81.169  94.343  0.00  0.00     0.033 C 
ENDBRANCH   1   4
BRANCH   1  12
ATOM     12  C   UNL d   1      80.897  79.417  96.294  0.00  0.00     0.045 C 
BRANCH  12  13
ATOM     13  C   UNL d   1      81.216  78.008  96.250  0.00  0.00     0.332 C 
ATOM     14  O   UNL d   1      80.776  77.376  95.297  0.00  0.00    -0.255 OA
ATOM     15  N   UNL d   1      81.954  77.596  97.283  0.00  0.00    -0.200 NA
BRANCH  15  16
ATOM     16  C   UNL d   1      81.551  76.430  97.842  0.00  0.00     0.085 A 
ATOM     17  C   UNL d   1      80.491  76.352  98.761  0.00  0.00     0.019 A 
ATOM     18  C   UNL d   1      80.101  75.145  99.333  0.00  0.00     0.005 A 
ATOM     19  C   UNL d   1      80.771  73.969  99.005  0.00  0.00     0.038 A 
ATOM     20  C   UNL d   1      81.848  74.026  98.121  0.00  0.00     0.005 A 
ATOM     21  C   UNL d   1      82.238  75.245  97.563  0.00  0.00     0.019 A 
BRANCH  19  22
ATOM     22  C   UNL d   1      80.342  72.703  99.560  0.00  0.00     0.191 A 
ATOM     23  N   UNL d   1      80.974  72.072 100.567  0.00  0.00    -0.105 NA
ATOM     24  O   UNL d   1      80.211  70.927 100.771  0.00  0.00    -0.186 OA
ATOM     25  C   UNL d   1      79.191  70.971  99.869  0.00  0.00     0.252 A 
ATOM     26  N   UNL d   1      79.226  72.032  99.101  0.00  0.00    -0.196 NA
ENDBRANCH  19  22
ENDBRANCH  15  16
ENDBRANCH  12  13
ENDBRANCH   1  12
BRANCH   2  27
ATOM     27  C   UNL d   1      82.762  81.746  96.008  0.00  0.00     0.059 A 
ATOM     28  C   UNL d   1      83.948  81.840  96.821  0.00  0.00     0.017 A 
ATOM     29  C   UNL d   1      85.400  81.412  96.511  0.00  0.00     0.099 A 
ATOM     30  S   UNL d   1      86.038  80.656  95.038  0.00  0.00     0.211 S 
ATOM     31  O   UNL d   1      86.791  81.667  94.358  0.00  0.00    -0.217 OA
ATOM     32  O   UNL d   1      86.271  79.280  95.370  0.00  0.00    -0.217 OA
ATOM     33  C   UNL d   1      84.467  80.637  94.190  0.00  0.00     0.099 A 
ATOM     34  C   UNL d   1      83.113  81.151  94.738  0.00  0.00     0.017 A 
ENDBRANCH   2  27
TORSDOF 6
ENDMDL
MODEL 3
REMARK VINA RESULT:      -8.0      7.748     11.659
REMARK  6 active torsions:
REMARK  status: ('A' for Active; 'I' for Inactive)
REMARK    1  A    between atoms: C_3  and  N_9 
REMARK    2  A    between atoms: N_9  and  C_10 
REMARK       I    between atoms: N_9  and  C_25 
REMARK    3  A    between atoms: C_10  and  C_11 
REMARK       I    between atoms: C_11  and  N_13 
REMARK    4  A    between atoms: N_13  and  C_14 
REMARK    5  A    between atoms: C_17  and  C_20 
REMARK    6  A    between atoms: C_25  and  C_27 
ROOT
ATOM      1  N   UNL d   1      82.462  78.851  95.245  0.00  0.00    -0.237 N 
ATOM      2  C   UNL d   1      82.041  78.891  93.919  0.00  0.00     0.271 C 
ATOM      3  O   UNL d   1      82.431  79.749  93.118  0.00  0.00    -0.266 OA
ENDROOT
BRANCH   1   4
ATOM      4  C   UNL d   1      83.269  79.945  95.697  0.00  0.00     0.067 A 
ATOM      5  C   UNL d   1      84.672  79.857  95.712  0.00  0.00    -0.005 A 
ATOM      6  C   UNL d   1      85.453  78.711  95.105  0.00  0.00     0.033 C 
ATOM      7  C   UNL d   1      85.445  80.908  96.213  0.00  0.00    -0.003 A 
ATOM      8  C   UNL d   1      84.842  82.062  96.696  0.00  0.00    -0.001 A 
ATOM      9  C   UNL d   1      83.459  82.175  96.655  0.00  0.00    -0.003 A 
ATOM     10  C   UNL d   1      82.673  81.132  96.159  0.00  0.00    -0.005 A 
ATOM     11  C   UNL d   1      81.176  81.371  96.173  0.00  0.00     0.033 C 
ENDBRANCH   1   4
BRANCH   1  12
ATOM     12  C   UNL d   1      82.232  77.937  96.227  0.00  0.00     0.045 C 
BRANCH  12  13
ATOM     13  C   UNL d   1      82.172  76.926  97.258  0.00  0.00     0.332 C 
ATOM     14  O   UNL d   1      82.828  75.908  97.066  0.00  0.00    -0.255 OA
ATOM     15  N   UNL d   1      81.388  77.258  98.285  0.00  0.00    -0.200 NA
BRANCH  15  16
ATOM     16  C   UNL d   1      80.564  76.272  98.715  0.00  0.00     0.085 A 
ATOM     17  C   UNL d   1      80.707  75.652  99.967  0.00  0.00     0.019 A 
ATOM     18  C   UNL d   1      79.856  74.632 100.385  0.00  0.00     0.005 A 
ATOM     19  C   UNL d   1      78.832  74.194  99.550  0.00  0.00     0.038 A 
ATOM     20  C   UNL d   1      78.690  74.771  98.289  0.00  0.00     0.005 A 
ATOM     21  C   UNL d   1      79.557  75.785  97.876  0.00  0.00     0.019 A 
BRANCH  19  22
ATOM     22  C   UNL d   1      77.915  73.166  99.995  0.00  0.00     0.191 A 
ATOM     23  N   UNL d   1      78.297  71.937 100.388  0.00  0.00    -0.105 NA
ATOM     24  O   UNL d   1      77.103  71.313 100.735  0.00  0.00    -0.186 OA
ATOM     25  C   UNL d   1      76.111  72.222 100.520  0.00  0.00     0.252 A 
ATOM     26  N   UNL d   1      76.550  73.368 100.063  0.00  0.00    -0.196 NA
ENDBRANCH  19  22
ENDBRANCH  15  16
ENDBRANCH  12  13
ENDBRANCH   1  12
BRANCH   2  27
ATOM     27  C   UNL d   1      81.101  77.835  93.453  0.00  0.00     0.059 A 
ATOM     28  C   UNL d   1      79.673  77.795  93.643  0.00  0.00     0.017 A 
ATOM     29  C   UNL d   1      78.602  76.932  92.938  0.00  0.00     0.099 A 
ATOM     30  S   UNL d   1      78.824  75.725  91.657  0.00  0.00     0.211 S 
ATOM     31  O   UNL d   1      78.637  74.444  92.272  0.00  0.00    -0.217 OA
ATOM     32  O   UNL d   1      78.353  76.339  90.450  0.00  0.00    -0.217 OA
ATOM     33  C   UNL d   1      80.597  75.918  91.579  0.00  0.00     0.099 A 
ATOM     34  C   UNL d   1      81.462  76.881  92.428  0.00  0.00     0.017 A 
ENDBRANCH   2  27
TORSDOF 6
ENDMDL
MODEL 4
REMARK VINA RESULT:      -7.7     14.989     19.313
REMARK  6 active torsions:
REMARK  status: ('A' for Active; 'I' for Inactive)
REMARK    1  A    between atoms: C_3  and  N_9 
REMARK    2  A    between atoms: N_9  and  C_10 
REMARK       I    between atoms: N_9  and  C_25 
REMARK    3  A    between atoms: C_10  and  C_11 
REMARK       I    between atoms: C_11  and  N_13 
REMARK    4  A    between atoms: N_13  and  C_14 
REMARK    5  A    between atoms: C_17  and  C_20 
REMARK    6  A    between atoms: C_25  and  C_27 
ROOT
ATOM      1  N   UNL d   1      67.018  86.513  94.497  0.00  0.00    -0.237 N 
ATOM      2  C   UNL d   1      66.275  87.051  93.451  0.00  0.00     0.271 C 
ATOM      3  O   UNL d   1      66.205  86.519  92.337  0.00  0.00    -0.266 OA
ENDROOT
BRANCH   1   4
ATOM      4  C   UNL d   1      67.831  85.374  94.191  0.00  0.00     0.067 A 
ATOM      5  C   UNL d   1      69.115  85.523  93.638  0.00  0.00    -0.005 A 
ATOM      6  C   UNL d   1      69.818  86.854  93.485  0.00  0.00     0.033 C 
ATOM      7  C   UNL d   1      69.873  84.403  93.288  0.00  0.00    -0.003 A 
ATOM      8  C   UNL d   1      69.375  83.121  93.487  0.00  0.00    -0.001 A 
ATOM      9  C   UNL d   1      68.123  82.960  94.064  0.00  0.00    -0.003 A 
ATOM     10  C   UNL d   1      67.353  84.071  94.418  0.00  0.00    -0.005 A 
ATOM     11  C   UNL d   1      66.001  83.767  95.031  0.00  0.00     0.033 C 
ENDBRANCH   1   4
BRANCH   1  12
ATOM     12  C   UNL d   1      67.127  86.890  95.801  0.00  0.00     0.045 C 
BRANCH  12  13
ATOM     13  C   UNL d   1      67.136  87.441  97.138  0.00  0.00     0.332 C 
ATOM     14  O   UNL d   1      66.668  88.566  97.269  0.00  0.00    -0.255 OA
ATOM     15  N   UNL d   1      67.673  86.625  98.046  0.00  0.00    -0.200 NA
BRANCH  15  16
ATOM     16  C   UNL d   1      68.531  87.220  98.910  0.00  0.00     0.085 A 
ATOM     17  C   UNL d   1      68.149  87.647 100.192  0.00  0.00     0.019 A 
ATOM     18  C   UNL d   1      69.044  88.266 101.059  0.00  0.00     0.005 A 
ATOM     19  C   UNL d   1      70.360  88.484 100.662  0.00  0.00     0.038 A 
ATOM     20  C   UNL d   1      70.756  88.100  99.381  0.00  0.00     0.005 A 
ATOM     21  C   UNL d   1      69.845  87.491  98.515  0.00  0.00     0.019 A 
BRANCH  19  22
ATOM     22  C   UNL d   1      71.310  89.086 101.574  0.00  0.00     0.191 A 
ATOM     23  N   UNL d   1      70.964  89.702 102.719  0.00  0.00    -0.105 NA
ATOM     24  O   UNL d   1      72.181  90.100 103.263  0.00  0.00    -0.186 OA
ATOM     25  C   UNL d   1      73.149  89.688 102.396  0.00  0.00     0.252 A 
ATOM     26  N   UNL d   1      72.672  89.068 101.346  0.00  0.00    -0.196 NA
ENDBRANCH  19  22
ENDBRANCH  15  16
ENDBRANCH  12  13
ENDBRANCH   1  12
BRANCH   2  27
ATOM     27  C   UNL d   1      65.517  88.307  93.706  0.00  0.00     0.059 A 
ATOM     28  C   UNL d   1      66.040  89.649  93.731  0.00  0.00     0.017 A 
ATOM     29  C   UNL d   1      65.299  91.004  93.668  0.00  0.00     0.099 A 
ATOM     30  S   UNL d   1      63.556  91.304  93.532  0.00  0.00     0.211 S 
ATOM     31  O   UNL d   1      63.125  91.772  94.816  0.00  0.00    -0.217 OA
ATOM     32  O   UNL d   1      63.332  91.728  92.180  0.00  0.00    -0.217 OA
ATOM     33  C   UNL d   1      63.109  89.576  93.524  0.00  0.00     0.099 A 
ATOM     34  C   UNL d   1      64.076  88.369  93.608  0.00  0.00     0.017 A 
ENDBRANCH   2  27
TORSDOF 6
ENDMDL
MODEL 5
REMARK VINA RESULT:      -7.7     15.005     19.297
REMARK  6 active torsions:
REMARK  status: ('A' for Active; 'I' for Inactive)
REMARK    1  A    between atoms: C_3  and  N_9 
REMARK    2  A    between atoms: N_9  and  C_10 
REMARK       I    between atoms: N_9  and  C_25 
REMARK    3  A    between atoms: C_10  and  C_11 
REMARK       I    between atoms: C_11  and  N_13 
REMARK    4  A    between atoms: N_13  and  C_14 
REMARK    5  A    between atoms: C_17  and  C_20 
REMARK    6  A    between atoms: C_25  and  C_27 
ROOT
ATOM      1  N   UNL d   1      66.858  86.388  94.593  0.00  0.00    -0.237 N 
ATOM      2  C   UNL d   1      66.057  86.829  93.544  0.00  0.00     0.271 C 
ATOM      3  O   UNL d   1      65.897  86.178  92.505  0.00  0.00    -0.266 OA
ENDROOT
BRANCH   1   4
ATOM      4  C   UNL d   1      67.620  85.197  94.365  0.00  0.00     0.067 A 
ATOM      5  C   UNL d   1      67.135  83.936  94.755  0.00  0.00    -0.005 A 
ATOM      6  C   UNL d   1      65.733  83.694  95.270  0.00  0.00     0.033 C 
ATOM      7  C   UNL d   1      67.914  82.790  94.580  0.00  0.00    -0.003 A 
ATOM      8  C   UNL d   1      69.179  82.873  94.012  0.00  0.00    -0.001 A 
ATOM      9  C   UNL d   1      69.656  84.106  93.591  0.00  0.00    -0.003 A 
ATOM     10  C   UNL d   1      68.888  85.262  93.760  0.00  0.00    -0.005 A 
ATOM     11  C   UNL d   1      69.520  86.549  93.269  0.00  0.00     0.033 C 
ENDBRANCH   1   4
BRANCH   1  12
ATOM     12  C   UNL d   1      67.066  86.905  95.835  0.00  0.00     0.045 C 
BRANCH  12  13
ATOM     13  C   UNL d   1      67.125  87.549  97.128  0.00  0.00     0.332 C 
ATOM     14  O   UNL d   1      66.789  88.728  97.167  0.00  0.00    -0.255 OA
ATOM     15  N   UNL d   1      67.554  86.748  98.104  0.00  0.00    -0.200 NA
BRANCH  15  16
ATOM     16  C   UNL d   1      68.465  87.303  98.938  0.00  0.00     0.085 A 
ATOM     17  C   UNL d   1      69.803  87.522  98.569  0.00  0.00     0.019 A 
ATOM     18  C   UNL d   1      70.726  88.083  99.446  0.00  0.00     0.005 A 
ATOM     19  C   UNL d   1      70.336  88.440 100.734  0.00  0.00     0.038 A 
ATOM     20  C   UNL d   1      69.022  88.202 101.135  0.00  0.00     0.005 A 
ATOM     21  C   UNL d   1      68.108  87.627 100.251  0.00  0.00     0.019 A 
BRANCH  19  22
ATOM     22  C   UNL d   1      71.278  89.066 101.637  0.00  0.00     0.191 A 
ATOM     23  N   UNL d   1      70.930  89.656 102.795  0.00  0.00    -0.105 NA
ATOM     24  O   UNL d   1      72.141  90.093 103.323  0.00  0.00    -0.186 OA
ATOM     25  C   UNL d   1      73.108  89.728 102.434  0.00  0.00     0.252 A 
ATOM     26  N   UNL d   1      72.635  89.103 101.384  0.00  0.00    -0.196 NA
ENDBRANCH  19  22
ENDBRANCH  15  16
ENDBRANCH  12  13
ENDBRANCH   1  12
BRANCH   2  27
ATOM     27  C   UNL d   1      65.350  88.129  93.704  0.00  0.00     0.059 A 
ATOM     28  C   UNL d   1      65.914  89.449  93.582  0.00  0.00     0.017 A 
ATOM     29  C   UNL d   1      65.215  90.816  93.415  0.00  0.00     0.099 A 
ATOM     30  S   UNL d   1      63.478  91.163  93.314  0.00  0.00     0.211 S 
ATOM     31  O   UNL d   1      63.112  91.765  94.562  0.00  0.00    -0.217 OA
ATOM     32  O   UNL d   1      63.215  91.464  91.937  0.00  0.00    -0.217 OA
ATOM     33  C   UNL d   1      62.977  89.458  93.488  0.00  0.00     0.099 A 
ATOM     34  C   UNL d   1      63.908  88.232  93.653  0.00  0.00     0.017 A 
ENDBRANCH   2  27
TORSDOF 6
ENDMDL
MODEL 6
REMARK VINA RESULT:      -7.7      7.693     11.647
REMARK  6 active torsions:
REMARK  status: ('A' for Active; 'I' for Inactive)
REMARK    1  A    between atoms: C_3  and  N_9 
REMARK    2  A    between atoms: N_9  and  C_10 
REMARK       I    between atoms: N_9  and  C_25 
REMARK    3  A    between atoms: C_10  and  C_11 
REMARK       I    between atoms: C_11  and  N_13 
REMARK    4  A    between atoms: N_13  and  C_14 
REMARK    5  A    between atoms: C_17  and  C_20 
REMARK    6  A    between atoms: C_25  and  C_27 
ROOT
ATOM      1  N   UNL d   1      82.769  78.876  95.085  0.00  0.00    -0.237 N 
ATOM      2  C   UNL d   1      82.413  79.029  93.749  0.00  0.00     0.271 C 
ATOM      3  O   UNL d   1      82.717  80.027  93.086  0.00  0.00    -0.266 OA
ENDROOT
BRANCH   1   4
ATOM      4  C   UNL d   1      83.391  80.000  95.719  0.00  0.00     0.067 A 
ATOM      5  C   UNL d   1      82.627  81.071  96.214  0.00  0.00    -0.005 A 
ATOM      6  C   UNL d   1      81.116  81.065  96.291  0.00  0.00     0.033 C 
ATOM      7  C   UNL d   1      83.250  82.188  96.776  0.00  0.00    -0.003 A 
ATOM      8  C   UNL d   1      84.635  82.258  96.863  0.00  0.00    -0.001 A 
ATOM      9  C   UNL d   1      85.399  81.192  96.409  0.00  0.00    -0.003 A 
ATOM     10  C   UNL d   1      84.790  80.068  95.844  0.00  0.00    -0.005 A 
ATOM     11  C   UNL d   1      85.731  78.974  95.378  0.00  0.00     0.033 C 
ENDBRANCH   1   4
BRANCH   1  12
ATOM     12  C   UNL d   1      82.622  77.820  95.933  0.00  0.00     0.045 C 
BRANCH  12  13
ATOM     13  C   UNL d   1      82.433  76.829  96.968  0.00  0.00     0.332 C 
ATOM     14  O   UNL d   1      82.973  75.743  96.790  0.00  0.00    -0.255 OA
ATOM     15  N   UNL d   1      81.675  77.253  97.980  0.00  0.00    -0.200 NA
BRANCH  15  16
ATOM     16  C   UNL d   1      80.740  76.368  98.401  0.00  0.00     0.085 A 
ATOM     17  C   UNL d   1      80.829  75.690  99.628  0.00  0.00     0.019 A 
ATOM     18  C   UNL d   1      79.862  74.777 100.037  0.00  0.00     0.005 A 
ATOM     19  C   UNL d   1      78.769  74.507  99.218  0.00  0.00     0.038 A 
ATOM     20  C   UNL d   1      78.675  75.142  97.980  0.00  0.00     0.005 A 
ATOM     21  C   UNL d   1      79.658  76.047  97.576  0.00  0.00     0.019 A 
BRANCH  19  22
ATOM     22  C   UNL d   1      77.736  73.592  99.655  0.00  0.00     0.191 A 
ATOM     23  N   UNL d   1      76.420  73.797  99.461  0.00  0.00    -0.105 NA
ATOM     24  O   UNL d   1      75.823  72.673 100.021  0.00  0.00    -0.186 OA
ATOM     25  C   UNL d   1      76.831  71.893 100.502  0.00  0.00     0.252 A 
ATOM     26  N   UNL d   1      78.020  72.410 100.309  0.00  0.00    -0.196 NA
ENDBRANCH  19  22
ENDBRANCH  15  16
ENDBRANCH  12  13
ENDBRANCH   1  12
BRANCH   2  27
ATOM     27  C   UNL d   1      81.655  77.926  93.097  0.00  0.00     0.059 A 
ATOM     28  C   UNL d   1      82.192  76.856  92.295  0.00  0.00     0.017 A 
ATOM     29  C   UNL d   1      81.545  75.523  91.858  0.00  0.00     0.099 A 
ATOM     30  S   UNL d   1      79.924  74.906  92.233  0.00  0.00     0.211 S 
ATOM     31  O   UNL d   1      79.159  75.019  91.027  0.00  0.00    -0.217 OA
ATOM     32  O   UNL d   1      80.110  73.876  93.213  0.00  0.00    -0.217 OA
ATOM     33  C   UNL d   1      79.442  76.334  93.192  0.00  0.00     0.099 A 
ATOM     34  C   UNL d   1      80.305  77.585  93.486  0.00  0.00     0.017 A 
ENDBRANCH   2  27
TORSDOF 6
ENDMDL
MODEL 7
REMARK VINA RESULT:      -7.6     19.744     22.425
REMARK  6 active torsions:
REMARK  status: ('A' for Active; 'I' for Inactive)
REMARK    1  A    between atoms: C_3  and  N_9 
REMARK    2  A    between atoms: N_9  and  C_10 
REMARK       I    between atoms: N_9  and  C_25 
REMARK    3  A    between atoms: C_10  and  C_11 
REMARK       I    between atoms: C_11  and  N_13 
REMARK    4  A    between atoms: N_13  and  C_14 
REMARK    5  A    between atoms: C_17  and  C_20 
REMARK    6  A    between atoms: C_25  and  C_27 
ROOT
ATOM      1  N   UNL d   1      61.104  87.448  92.143  0.00  0.00    -0.237 N 
ATOM      2  C   UNL d   1      60.089  88.185  92.745  0.00  0.00     0.271 C 
ATOM      3  O   UNL d   1      60.257  89.334  93.170  0.00  0.00    -0.266 OA
ENDROOT
BRANCH   1   4
ATOM      4  C   UNL d   1      62.415  88.025  92.160  0.00  0.00     0.067 A 
ATOM      5  C   UNL d   1      63.176  88.068  93.341  0.00  0.00    -0.005 A 
ATOM      6  C   UNL d   1      62.780  87.373  94.625  0.00  0.00     0.033 C 
ATOM      7  C   UNL d   1      64.429  88.687  93.357  0.00  0.00    -0.003 A 
ATOM      8  C   UNL d   1      64.948  89.264  92.205  0.00  0.00    -0.001 A 
ATOM      9  C   UNL d   1      64.222  89.198  91.025  0.00  0.00    -0.003 A 
ATOM     10  C   UNL d   1      62.967  88.584  90.993  0.00  0.00    -0.005 A 
ATOM     11  C   UNL d   1      62.268  88.583  89.648  0.00  0.00     0.033 C 
ENDBRANCH   1   4
BRANCH   1  12
ATOM     12  C   UNL d   1      61.081  86.234  91.527  0.00  0.00     0.045 C 
BRANCH  12  13
ATOM     13  C   UNL d   1      60.905  85.009  90.779  0.00  0.00     0.332 C 
ATOM     14  O   UNL d   1      61.465  84.948  89.691  0.00  0.00    -0.255 OA
ATOM     15  N   UNL d   1      60.135  84.113  91.398  0.00  0.00    -0.200 NA
BRANCH  15  16
ATOM     16  C   UNL d   1      59.213  83.511  90.609  0.00  0.00     0.085 A 
ATOM     17  C   UNL d   1      59.375  82.210  90.104  0.00  0.00     0.019 A 
ATOM     18  C   UNL d   1      58.420  81.615  89.284  0.00  0.00     0.005 A 
ATOM     19  C   UNL d   1      57.267  82.314  88.937  0.00  0.00     0.038 A 
ATOM     20  C   UNL d   1      57.100  83.619  89.397  0.00  0.00     0.005 A 
ATOM     21  C   UNL d   1      58.070  84.210  90.209  0.00  0.00     0.019 A 
BRANCH  19  22
ATOM     22  C   UNL d   1      56.248  81.686  88.122  0.00  0.00     0.191 A 
ATOM     23  N   UNL d   1      55.898  80.391  88.225  0.00  0.00    -0.105 NA
ATOM     24  O   UNL d   1      54.891  80.243  87.277  0.00  0.00    -0.186 OA
ATOM     25  C   UNL d   1      54.726  81.462  86.689  0.00  0.00     0.252 A 
ATOM     26  N   UNL d   1      55.534  82.377  87.164  0.00  0.00    -0.196 NA
ENDBRANCH  19  22
ENDBRANCH  15  16
ENDBRANCH  12  13
ENDBRANCH   1  12
BRANCH   2  27
ATOM     27  C   UNL d   1      58.742  87.560  92.854  0.00  0.00     0.059 A 
ATOM     28  C   UNL d   1      58.163  86.933  94.015  0.00  0.00     0.017 A 
ATOM     29  C   UNL d   1      56.695  86.556  94.311  0.00  0.00     0.099 A 
ATOM     30  S   UNL d   1      55.264  86.799  93.290  0.00  0.00     0.211 S 
ATOM     31  O   UNL d   1      54.902  85.507  92.787  0.00  0.00    -0.217 OA
ATOM     32  O   UNL d   1      54.541  87.889  93.877  0.00  0.00    -0.217 OA
ATOM     33  C   UNL d   1      56.169  87.552  91.947  0.00  0.00     0.099 A 
ATOM     34  C   UNL d   1      57.693  87.821  91.894  0.00  0.00     0.017 A 
ENDBRANCH   2  27
TORSDOF 6
ENDMDL
MODEL 8
REMARK VINA RESULT:      -7.5      7.747     12.071
REMARK  6 active torsions:
REMARK  status: ('A' for Active; 'I' for Inactive)
REMARK    1  A    between atoms: C_3  and  N_9 
REMARK    2  A    between atoms: N_9  and  C_10 
REMARK       I    between atoms: N_9  and  C_25 
REMARK    3  A    between atoms: C_10  and  C_11 
REMARK       I    between atoms: C_11  and  N_13 
REMARK    4  A    between atoms: N_13  and  C_14 
REMARK    5  A    between atoms: C_17  and  C_20 
REMARK    6  A    between atoms: C_25  and  C_27 
ROOT
ATOM      1  N   UNL d   1      82.132  79.305  95.482  0.00  0.00    -0.237 N 
ATOM      2  C   UNL d   1      81.782  79.329  94.136  0.00  0.00     0.271 C 
ATOM      3  O   UNL d   1      82.442  79.933  93.283  0.00  0.00    -0.266 OA
ENDROOT
BRANCH   1   4
ATOM      4  C   UNL d   1      83.227  80.139  95.878  0.00  0.00     0.067 A 
ATOM      5  C   UNL d   1      84.548  79.657  95.876  0.00  0.00    -0.005 A 
ATOM      6  C   UNL d   1      84.956  78.317  95.305  0.00  0.00     0.033 C 
ATOM      7  C   UNL d   1      85.599  80.463  96.322  0.00  0.00    -0.003 A 
ATOM      8  C   UNL d   1      85.360  81.757  96.766  0.00  0.00    -0.001 A 
ATOM      9  C   UNL d   1      84.065  82.257  96.740  0.00  0.00    -0.003 A 
ATOM     10  C   UNL d   1      83.004  81.463  96.299  0.00  0.00    -0.005 A 
ATOM     11  C   UNL d   1      81.637  82.117  96.325  0.00  0.00     0.033 C 
ENDBRANCH   1   4
BRANCH   1  12
ATOM     12  C   UNL d   1      81.600  78.618  96.531  0.00  0.00     0.045 C 
BRANCH  12  13
ATOM     13  C   UNL d   1      80.875  77.885  97.544  0.00  0.00     0.332 C 
ATOM     14  O   UNL d   1      81.180  78.114  98.709  0.00  0.00    -0.255 OA
ATOM     15  N   UNL d   1      79.966  77.046  97.046  0.00  0.00    -0.200 NA
BRANCH  15  16
ATOM     16  C   UNL d   1      79.950  75.818  97.617  0.00  0.00     0.085 A 
ATOM     17  C   UNL d   1      78.993  75.432  98.571  0.00  0.00     0.019 A 
ATOM     18  C   UNL d   1      79.003  74.169  99.154  0.00  0.00     0.005 A 
ATOM     19  C   UNL d   1      79.985  73.247  98.802  0.00  0.00     0.038 A 
ATOM     20  C   UNL d   1      80.965  73.617  97.883  0.00  0.00     0.005 A 
ATOM     21  C   UNL d   1      80.953  74.892  97.313  0.00  0.00     0.019 A 
BRANCH  19  22
ATOM     22  C   UNL d   1      79.975  71.915  99.369  0.00  0.00     0.191 A 
ATOM     23  N   UNL d   1      80.676  71.559 100.461  0.00  0.00    -0.105 NA
ATOM     24  O   UNL d   1      80.351  70.218 100.642  0.00  0.00    -0.186 OA
ATOM     25  C   UNL d   1      79.485  69.888  99.643  0.00  0.00     0.252 A 
ATOM     26  N   UNL d   1      79.225  70.886  98.834  0.00  0.00    -0.196 NA
ENDBRANCH  19  22
ENDBRANCH  15  16
ENDBRANCH  12  13
ENDBRANCH   1  12
BRANCH   2  27
ATOM     27  C   UNL d   1      80.573  78.569  93.715  0.00  0.00     0.059 A 
ATOM     28  C   UNL d   1      80.502  77.177  93.349  0.00  0.00     0.017 A 
ATOM     29  C   UNL d   1      79.276  76.247  93.215  0.00  0.00     0.099 A 
ATOM     30  S   UNL d   1      77.565  76.629  93.489  0.00  0.00     0.211 S 
ATOM     31  O   UNL d   1      76.952  76.687  92.195  0.00  0.00    -0.217 OA
ATOM     32  O   UNL d   1      77.219  76.018  94.739  0.00  0.00    -0.217 OA
ATOM     33  C   UNL d   1      77.861  78.338  93.909  0.00  0.00     0.099 A 
ATOM     34  C   UNL d   1      79.234  79.053  93.966  0.00  0.00     0.017 A 
ENDBRANCH   2  27
TORSDOF 6
ENDMDL
MODEL 9
REMARK VINA RESULT:      -7.5      4.049      5.594
REMARK  6 active torsions:
REMARK  status: ('A' for Active; 'I' for Inactive)
REMARK    1  A    between atoms: C_3  and  N_9 
REMARK    2  A    between atoms: N_9  and  C_10 
REMARK       I    between atoms: N_9  and  C_25 
REMARK    3  A    between atoms: C_10  and  C_11 
REMARK       I    between atoms: C_11  and  N_13 
REMARK    4  A    between atoms: N_13  and  C_14 
REMARK    5  A    between atoms: C_17  and  C_20 
REMARK    6  A    between atoms: C_25  and  C_27 
ROOT
ATOM      1  N   UNL d   1      77.560  69.520  89.958  0.00  0.00    -0.237 N 
ATOM      2  C   UNL d   1      78.274  70.660  89.603  0.00  0.00     0.271 C 
ATOM      3  O   UNL d   1      79.112  70.669  88.694  0.00  0.00    -0.266 OA
ENDROOT
BRANCH   1   4
ATOM      4  C   UNL d   1      77.938  68.297  89.316  0.00  0.00     0.067 A 
ATOM      5  C   UNL d   1      77.329  67.886  88.118  0.00  0.00    -0.005 A 
ATOM      6  C   UNL d   1      76.377  68.747  87.316  0.00  0.00     0.033 C 
ATOM      7  C   UNL d   1      77.665  66.661  87.534  0.00  0.00    -0.003 A 
ATOM      8  C   UNL d   1      78.611  65.832  88.122  0.00  0.00    -0.001 A 
ATOM      9  C   UNL d   1      79.245  66.243  89.286  0.00  0.00    -0.003 A 
ATOM     10  C   UNL d   1      78.919  67.464  89.882  0.00  0.00    -0.005 A 
ATOM     11  C   UNL d   1      79.673  67.797  91.155  0.00  0.00     0.033 C 
ENDBRANCH   1   4
BRANCH   1  12
ATOM     12  C   UNL d   1      76.539  69.346  90.842  0.00  0.00     0.045 C 
BRANCH  12  13
ATOM     13  C   UNL d   1      75.589  69.117  91.908  0.00  0.00     0.332 C 
ATOM     14  O   UNL d   1      74.463  69.571  91.744  0.00  0.00    -0.255 OA
ATOM     15  N   UNL d   1      76.096  68.436  92.936  0.00  0.00    -0.200 NA
BRANCH  15  16
ATOM     16  C   UNL d   1      75.779  68.928  94.158  0.00  0.00     0.085 A 
ATOM     17  C   UNL d   1      76.292  70.141  94.648  0.00  0.00     0.019 A 
ATOM     18  C   UNL d   1      75.962  70.622  95.911  0.00  0.00     0.005 A 
ATOM     19  C   UNL d   1      75.105  69.895  96.732  0.00  0.00     0.038 A 
ATOM     20  C   UNL d   1      74.609  68.672  96.282  0.00  0.00     0.005 A 
ATOM     21  C   UNL d   1      74.957  68.193  95.017  0.00  0.00     0.019 A 
BRANCH  19  22
ATOM     22  C   UNL d   1      74.720  70.411  98.029  0.00  0.00     0.191 A 
ATOM     23  N   UNL d   1      74.609  69.654  99.136  0.00  0.00    -0.105 NA
ATOM     24  O   UNL d   1      74.241  70.561 100.123  0.00  0.00    -0.186 OA
ATOM     25  C   UNL d   1      74.163  71.782  99.523  0.00  0.00     0.252 A 
ATOM     26  N   UNL d   1      74.442  71.746  98.243  0.00  0.00    -0.196 NA
ENDBRANCH  19  22
ENDBRANCH  15  16
ENDBRANCH  12  13
ENDBRANCH   1  12
BRANCH   2  27
ATOM     27  C   UNL d   1      77.990  71.921  90.342  0.00  0.00     0.059 A 
ATOM     28  C   UNL d   1      78.832  72.570  91.314  0.00  0.00     0.017 A 
ATOM     29  C   UNL d   1      78.771  74.008  91.878  0.00  0.00     0.099 A 
ATOM     30  S   UNL d   1      77.629  75.304  91.476  0.00  0.00     0.211 S 
ATOM     31  O   UNL d   1      76.750  75.432  92.600  0.00  0.00    -0.217 OA
ATOM     32  O   UNL d   1      78.356  76.231  90.658  0.00  0.00    -0.217 OA
ATOM     33  C   UNL d   1      76.702  74.326  90.306  0.00  0.00     0.099 A 
ATOM     34  C   UNL d   1      76.974  72.854  89.908  0.00  0.00     0.017 A 
ENDBRANCH   2  27
TORSDOF 6
ENDMDL
MODEL 10
REMARK VINA RESULT:      -7.4      4.162      5.387
REMARK  6 active torsions:
REMARK  status: ('A' for Active; 'I' for Inactive)
REMARK    1  A    between atoms: C_3  and  N_9 
REMARK    2  A    between atoms: N_9  and  C_10 
REMARK       I    between atoms: N_9  and  C_25 
REMARK    3  A    between atoms: C_10  and  C_11 
REMARK       I    between atoms: C_11  and  N_13 
REMARK    4  A    between atoms: N_13  and  C_14 
REMARK    5  A    between atoms: C_17  and  C_20 
REMARK    6  A    between atoms: C_25  and  C_27 
ROOT
ATOM      1  N   UNL d   1      77.794  69.484  90.092  0.00  0.00    -0.237 N 
ATOM      2  C   UNL d   1      78.569  70.554  89.655  0.00  0.00     0.271 C 
ATOM      3  O   UNL d   1      79.306  70.487  88.665  0.00  0.00    -0.266 OA
ENDROOT
BRANCH   1   4
ATOM      4  C   UNL d   1      77.991  68.232  89.424  0.00  0.00     0.067 A 
ATOM      5  C   UNL d   1      78.895  67.276  89.921  0.00  0.00    -0.005 A 
ATOM      6  C   UNL d   1      79.591  67.389  91.260  0.00  0.00     0.033 C 
ATOM      7  C   UNL d   1      79.122  66.085  89.227  0.00  0.00    -0.003 A 
ATOM      8  C   UNL d   1      78.453  65.819  88.039  0.00  0.00    -0.001 A 
ATOM      9  C   UNL d   1      77.533  66.738  87.556  0.00  0.00    -0.003 A 
ATOM     10  C   UNL d   1      77.296  67.935  88.238  0.00  0.00    -0.005 A 
ATOM     11  C   UNL d   1      76.276  68.861  87.607  0.00  0.00     0.033 C 
ENDBRANCH   1   4
BRANCH   1  12
ATOM     12  C   UNL d   1      76.858  69.403  91.077  0.00  0.00     0.045 C 
BRANCH  12  13
ATOM     13  C   UNL d   1      75.801  69.162  92.034  0.00  0.00     0.332 C 
ATOM     14  O   UNL d   1      74.707  69.650  91.775  0.00  0.00    -0.255 OA
ATOM     15  N   UNL d   1      76.188  68.435  93.082  0.00  0.00    -0.200 NA
BRANCH  15  16
ATOM     16  C   UNL d   1      75.760  68.894  94.283  0.00  0.00     0.085 A 
ATOM     17  C   UNL d   1      76.189  70.115  94.829  0.00  0.00     0.019 A 
ATOM     18  C   UNL d   1      75.746  70.562  96.070  0.00  0.00     0.005 A 
ATOM     19  C   UNL d   1      74.857  69.790  96.812  0.00  0.00     0.038 A 
ATOM     20  C   UNL d   1      74.442  68.558  96.307  0.00  0.00     0.005 A 
ATOM     21  C   UNL d   1      74.903  68.114  95.066  0.00  0.00     0.019 A 
BRANCH  19  22
ATOM     22  C   UNL d   1      74.356  70.269  98.083  0.00  0.00     0.191 A 
ATOM     23  N   UNL d   1      73.049  70.358  98.390  0.00  0.00    -0.105 NA
ATOM     24  O   UNL d   1      73.045  70.842  99.694  0.00  0.00    -0.186 OA
ATOM     25  C   UNL d   1      74.350  71.002 100.054  0.00  0.00     0.252 A 
ATOM     26  N   UNL d   1      75.192  70.671  99.106  0.00  0.00    -0.196 NA
ENDBRANCH  19  22
ENDBRANCH  15  16
ENDBRANCH  12  13
ENDBRANCH   1  12
BRANCH   2  27
ATOM     27  C   UNL d   1      78.478  71.835  90.408  0.00  0.00     0.059 A 
ATOM     28  C   UNL d   1      79.121  72.159  91.656  0.00  0.00     0.017 A 
ATOM     29  C   UNL d   1      79.341  73.531  92.332  0.00  0.00     0.099 A 
ATOM     30  S   UNL d   1      78.866  75.138  91.749  0.00  0.00     0.211 S 
ATOM     31  O   UNL d   1      77.760  75.552  92.560  0.00  0.00    -0.217 OA
ATOM     32  O   UNL d   1      80.073  75.768  91.298  0.00  0.00    -0.217 OA
ATOM     33  C   UNL d   1      78.107  74.533  90.251  0.00  0.00     0.099 A 
ATOM     34  C   UNL d   1      78.010  73.057  89.793  0.00  0.00     0.017 A 
ENDBRANCH   2  27
TORSDOF 6
ENDMDL
MODEL 11
REMARK VINA RESULT:      -7.3     13.987     19.721
REMARK  6 active torsions:
REMARK  status: ('A' for Active; 'I' for Inactive)
REMARK    1  A    between atoms: C_3  and  N_9 
REMARK    2  A    between atoms: N_9  and  C_10 
REMARK       I    between atoms: N_9  and  C_25 
REMARK    3  A    between atoms: C_10  and  C_11 
REMARK       I    between atoms: C_11  and  N_13 
REMARK    4  A    between atoms: N_13  and  C_14 
REMARK    5  A    between atoms: C_17  and  C_20 
REMARK    6  A    between atoms: C_25  and  C_27 
ROOT
ATOM      1  N   UNL d   1      62.343  87.145  91.950  0.00  0.00    -0.237 N 
ATOM      2  C   UNL d   1      62.000  88.204  92.785  0.00  0.00     0.271 C 
ATOM      3  O   UNL d   1      60.836  88.596  92.925  0.00  0.00    -0.266 OA
ENDROOT
BRANCH   1   4
ATOM      4  C   UNL d   1      61.299  86.606  91.132  0.00  0.00     0.067 A 
ATOM      5  C   UNL d   1      60.500  85.539  91.580  0.00  0.00    -0.005 A 
ATOM      6  C   UNL d   1      60.538  84.991  92.990  0.00  0.00     0.033 C 
ATOM      7  C   UNL d   1      59.525  84.983  90.748  0.00  0.00    -0.003 A 
ATOM      8  C   UNL d   1      59.321  85.479  89.466  0.00  0.00    -0.001 A 
ATOM      9  C   UNL d   1      60.079  86.554  89.025  0.00  0.00    -0.003 A 
ATOM     10  C   UNL d   1      61.059  87.120  89.845  0.00  0.00    -0.005 A 
ATOM     11  C   UNL d   1      61.826  88.283  89.247  0.00  0.00     0.033 C 
ENDBRANCH   1   4
BRANCH   1  12
ATOM     12  C   UNL d   1      63.533  86.513  91.754  0.00  0.00     0.045 C 
BRANCH  12  13
ATOM     13  C   UNL d   1      64.866  86.013  91.504  0.00  0.00     0.332 C 
ATOM     14  O   UNL d   1      64.947  84.902  90.992  0.00  0.00    -0.255 OA
ATOM     15  N   UNL d   1      65.830  86.853  91.884  0.00  0.00    -0.200 NA
BRANCH  15  16
ATOM     16  C   UNL d   1      66.857  86.277  92.554  0.00  0.00     0.085 A 
ATOM     17  C   UNL d   1      68.121  86.069  91.979  0.00  0.00     0.019 A 
ATOM     18  C   UNL d   1      69.159  85.464  92.682  0.00  0.00     0.005 A 
ATOM     19  C   UNL d   1      68.958  85.039  93.992  0.00  0.00     0.038 A 
ATOM     20  C   UNL d   1      67.701  85.203  94.574  0.00  0.00     0.005 A 
ATOM     21  C   UNL d   1      66.664  85.800  93.855  0.00  0.00     0.019 A 
BRANCH  19  22
ATOM     22  C   UNL d   1      70.045  84.450  94.745  0.00  0.00     0.191 A 
ATOM     23  N   UNL d   1      69.995  84.202  96.067  0.00  0.00    -0.105 NA
ATOM     24  O   UNL d   1      71.233  83.631  96.344  0.00  0.00    -0.186 OA
ATOM     25  C   UNL d   1      71.916  83.588  95.166  0.00  0.00     0.252 A 
ATOM     26  N   UNL d   1      71.239  84.081  94.158  0.00  0.00    -0.196 NA
ENDBRANCH  19  22
ENDBRANCH  15  16
ENDBRANCH  12  13
ENDBRANCH   1  12
BRANCH   2  27
ATOM     27  C   UNL d   1      63.087  88.867  93.556  0.00  0.00     0.059 A 
ATOM     28  C   UNL d   1      63.742  90.112  93.243  0.00  0.00     0.017 A 
ATOM     29  C   UNL d   1      64.629  91.016  94.127  0.00  0.00     0.099 A 
ATOM     30  S   UNL d   1      65.100  90.784  95.822  0.00  0.00     0.211 S 
ATOM     31  O   UNL d   1      66.481  90.404  95.811  0.00  0.00    -0.217 OA
ATOM     32  O   UNL d   1      64.321  91.720  96.580  0.00  0.00    -0.217 OA
ATOM     33  C   UNL d   1      64.223  89.240  96.008  0.00  0.00     0.099 A 
ATOM     34  C   UNL d   1      63.383  88.517  94.927  0.00  0.00     0.017 A 
ENDBRANCH   2  27
TORSDOF 6
ENDMDL
MODEL 12
REMARK VINA RESULT:      -7.1      5.000      7.133
REMARK  6 active torsions:
REMARK  status: ('A' for Active; 'I' for Inactive)
REMARK    1  A    between atoms: C_3  and  N_9 
REMARK    2  A    between atoms: N_9  and  C_10 
REMARK       I    between atoms: N_9  and  C_25 
REMARK    3  A    between atoms: C_10  and  C_11 
REMARK       I    between atoms: C_11  and  N_13 
REMARK    4  A    between atoms: N_13  and  C_14 
REMARK    5  A    between atoms: C_17  and  C_20 
REMARK    6  A    between atoms: C_25  and  C_27 
ROOT
ATOM      1  N   UNL d   1      77.912  69.342  90.307  0.00  0.00    -0.237 N 
ATOM      2  C   UNL d   1      79.264  69.669  90.281  0.00  0.00     0.271 C 
ATOM      3  O   UNL d   1      79.853  70.000  89.246  0.00  0.00    -0.266 OA
ENDROOT
BRANCH   1   4
ATOM      4  C   UNL d   1      77.244  69.262  89.042  0.00  0.00     0.067 A 
ATOM      5  C   UNL d   1      77.295  68.093  88.265  0.00  0.00    -0.005 A 
ATOM      6  C   UNL d   1      77.883  66.784  88.746  0.00  0.00     0.033 C 
ATOM      7  C   UNL d   1      76.690  68.049  87.006  0.00  0.00    -0.003 A 
ATOM      8  C   UNL d   1      76.021  69.158  86.503  0.00  0.00    -0.001 A 
ATOM      9  C   UNL d   1      75.934  70.307  87.275  0.00  0.00    -0.003 A 
ATOM     10  C   UNL d   1      76.535  70.366  88.535  0.00  0.00    -0.005 A 
ATOM     11  C   UNL d   1      76.379  71.678  89.279  0.00  0.00     0.033 C 
ENDBRANCH   1   4
BRANCH   1  12
ATOM     12  C   UNL d   1      77.080  69.064  91.349  0.00  0.00     0.045 C 
BRANCH  12  13
ATOM     13  C   UNL d   1      76.346  68.807  92.568  0.00  0.00     0.332 C 
ATOM     14  O   UNL d   1      75.237  69.322  92.657  0.00  0.00    -0.255 OA
ATOM     15  N   UNL d   1      77.005  68.036  93.434  0.00  0.00    -0.200 NA
BRANCH  15  16
ATOM     16  C   UNL d   1      76.962  68.459  94.720  0.00  0.00     0.085 A 
ATOM     17  C   UNL d   1      77.684  69.573  95.181  0.00  0.00     0.019 A 
ATOM     18  C   UNL d   1      77.634  69.983  96.510  0.00  0.00     0.005 A 
ATOM     19  C   UNL d   1      76.859  69.279  97.428  0.00  0.00     0.038 A 
ATOM     20  C   UNL d   1      76.161  68.150  97.002  0.00  0.00     0.005 A 
ATOM     21  C   UNL d   1      76.227  67.741  95.669  0.00  0.00     0.019 A 
BRANCH  19  22
ATOM     22  C   UNL d   1      76.766  69.726  98.802  0.00  0.00     0.191 A 
ATOM     23  N   UNL d   1      77.191  69.006  99.856  0.00  0.00    -0.105 NA
ATOM     24  O   UNL d   1      76.920  69.824 100.948  0.00  0.00    -0.186 OA
ATOM     25  C   UNL d   1      76.356  70.962 100.453  0.00  0.00     0.252 A 
ATOM     26  N   UNL d   1      76.234  70.952  99.148  0.00  0.00    -0.196 NA
ENDBRANCH  19  22
ENDBRANCH  15  16
ENDBRANCH  12  13
ENDBRANCH   1  12
BRANCH   2  27
ATOM     27  C   UNL d   1      80.014  69.639  91.567  0.00  0.00     0.059 A 
ATOM     28  C   UNL d   1      80.972  68.650  91.993  0.00  0.00     0.017 A 
ATOM     29  C   UNL d   1      82.012  68.703  93.135  0.00  0.00     0.099 A 
ATOM     30  S   UNL d   1      82.342  70.029  94.267  0.00  0.00     0.211 S 
ATOM     31  O   UNL d   1      81.810  69.620  95.534  0.00  0.00    -0.217 OA
ATOM     32  O   UNL d   1      83.577  70.617  93.838  0.00  0.00    -0.217 OA
ATOM     33  C   UNL d   1      81.090  71.110  93.597  0.00  0.00     0.099 A 
ATOM     34  C   UNL d   1      80.142  70.806  92.411  0.00  0.00     0.017 A 
ENDBRANCH   2  27
TORSDOF 6
ENDMDL
MODEL 13
REMARK VINA RESULT:      -7.1     10.960     15.144
REMARK  6 active torsions:
REMARK  status: ('A' for Active; 'I' for Inactive)
REMARK    1  A    between atoms: C_3  and  N_9 
REMARK    2  A    between atoms: N_9  and  C_10 
REMARK       I    between atoms: N_9  and  C_25 
REMARK    3  A    between atoms: C_10  and  C_11 
REMARK       I    between atoms: C_11  and  N_13 
REMARK    4  A    between atoms: N_13  and  C_14 
REMARK    5  A    between atoms: C_17  and  C_20 
REMARK    6  A    between atoms: C_25  and  C_27 
ROOT
ATOM      1  N   UNL d   1      68.423  73.639 102.014  0.00  0.00    -0.237 N 
ATOM      2  C   UNL d   1      67.095  73.985 101.778  0.00  0.00     0.271 C 
ATOM      3  O   UNL d   1      66.509  74.865 102.417  0.00  0.00    -0.266 OA
ENDROOT
BRANCH   1   4
ATOM      4  C   UNL d   1      69.056  74.253 103.143  0.00  0.00     0.067 A 
ATOM      5  C   UNL d   1      69.008  73.660 104.416  0.00  0.00    -0.005 A 
ATOM      6  C   UNL d   1      68.460  72.275 104.682  0.00  0.00     0.033 C 
ATOM      7  C   UNL d   1      69.579  74.300 105.520  0.00  0.00    -0.003 A 
ATOM      8  C   UNL d   1      70.211  75.528 105.378  0.00  0.00    -0.001 A 
ATOM      9  C   UNL d   1      70.296  76.108 104.120  0.00  0.00    -0.003 A 
ATOM     10  C   UNL d   1      69.728  75.481 103.007  0.00  0.00    -0.005 A 
ATOM     11  C   UNL d   1      69.879  76.216 101.689  0.00  0.00     0.033 C 
ENDBRANCH   1   4
BRANCH   1  12
ATOM     12  C   UNL d   1      69.254  72.788 101.353  0.00  0.00     0.045 C 
BRANCH  12  13
ATOM     13  C   UNL d   1      69.986  71.771 100.632  0.00  0.00     0.332 C 
ATOM     14  O   UNL d   1      69.745  70.607 100.931  0.00  0.00    -0.255 OA
ATOM     15  N   UNL d   1      70.839  72.265  99.734  0.00  0.00    -0.200 NA
BRANCH  15  16
ATOM     16  C   UNL d   1      72.063  71.683  99.729  0.00  0.00     0.085 A 
ATOM     17  C   UNL d   1      72.536  70.911  98.656  0.00  0.00     0.019 A 
ATOM     18  C   UNL d   1      73.793  70.313  98.677  0.00  0.00     0.005 A 
ATOM     19  C   UNL d   1      74.618  70.466  99.788  0.00  0.00     0.038 A 
ATOM     20  C   UNL d   1      74.157  71.199 100.880  0.00  0.00     0.005 A 
ATOM     21  C   UNL d   1      72.890  71.785 100.852  0.00  0.00     0.019 A 
BRANCH  19  22
ATOM     22  C   UNL d   1      75.944  69.885  99.799  0.00  0.00     0.191 A 
ATOM     23  N   UNL d   1      76.982  70.396 100.485  0.00  0.00    -0.105 NA
ATOM     24  O   UNL d   1      78.024  69.514 100.218  0.00  0.00    -0.186 OA
ATOM     25  C   UNL d   1      77.520  68.552  99.395  0.00  0.00     0.252 A 
ATOM     26  N   UNL d   1      76.255  68.733  99.104  0.00  0.00    -0.196 NA
ENDBRANCH  19  22
ENDBRANCH  15  16
ENDBRANCH  12  13
ENDBRANCH   1  12
BRANCH   2  27
ATOM     27  C   UNL d   1      66.372  73.273 100.689  0.00  0.00     0.059 A 
ATOM     28  C   UNL d   1      66.327  73.631  99.294  0.00  0.00     0.017 A 
ATOM     29  C   UNL d   1      65.884  72.799  98.070  0.00  0.00     0.099 A 
ATOM     30  S   UNL d   1      65.299  71.124  98.025  0.00  0.00     0.211 S 
ATOM     31  O   UNL d   1      63.890  71.194  97.776  0.00  0.00    -0.217 OA
ATOM     32  O   UNL d   1      66.377  70.343  97.491  0.00  0.00    -0.217 OA
ATOM     33  C   UNL d   1      65.419  70.880  99.790  0.00  0.00     0.099 A 
ATOM     34  C   UNL d   1      65.905  71.912 100.836  0.00  0.00     0.017 A 
ENDBRANCH   2  27
TORSDOF 6
ENDMDL
MODEL 14
REMARK VINA RESULT:      -6.8     13.291     17.011
REMARK  6 active torsions:
REMARK  status: ('A' for Active; 'I' for Inactive)
REMARK    1  A    between atoms: C_3  and  N_9 
REMARK    2  A    between atoms: N_9  and  C_10 
REMARK       I    between atoms: N_9  and  C_25 
REMARK    3  A    between atoms: C_10  and  C_11 
REMARK       I    between atoms: C_11  and  N_13 
REMARK    4  A    between atoms: N_13  and  C_14 
REMARK    5  A    between atoms: C_17  and  C_20 
REMARK    6  A    between atoms: C_25  and  C_27 
ROOT
ATOM      1  N   UNL d   1      64.288  72.102  99.618  0.00  0.00    -0.237 N 
ATOM      2  C   UNL d   1      65.325  72.589  98.828  0.00  0.00     0.271 C 
ATOM      3  O   UNL d   1      66.350  73.090  99.303  0.00  0.00    -0.266 OA
ENDROOT
BRANCH   1   4
ATOM      4  C   UNL d   1      64.389  72.335 101.028  0.00  0.00     0.067 A 
ATOM      5  C   UNL d   1      65.048  71.424 101.871  0.00  0.00    -0.005 A 
ATOM      6  C   UNL d   1      65.848  70.240 101.374  0.00  0.00     0.033 C 
ATOM      7  C   UNL d   1      65.087  71.635 103.252  0.00  0.00    -0.003 A 
ATOM      8  C   UNL d   1      64.482  72.750 103.816  0.00  0.00    -0.001 A 
ATOM      9  C   UNL d   1      63.858  73.675 102.991  0.00  0.00    -0.003 A 
ATOM     10  C   UNL d   1      63.810  73.478 101.608  0.00  0.00    -0.005 A 
ATOM     11  C   UNL d   1      63.093  74.552 100.814  0.00  0.00     0.033 C 
ENDBRANCH   1   4
BRANCH   1  12
ATOM     12  C   UNL d   1      63.152  71.430  99.285  0.00  0.00     0.045 C 
BRANCH  12  13
ATOM     13  C   UNL d   1      61.855  70.883  98.955  0.00  0.00     0.332 C 
ATOM     14  O   UNL d   1      61.737  70.390  97.839  0.00  0.00    -0.255 OA
ATOM     15  N   UNL d   1      60.959  71.007  99.935  0.00  0.00    -0.200 NA
BRANCH  15  16
ATOM     16  C   UNL d   1      59.734  71.427  99.537  0.00  0.00     0.085 A 
ATOM     17  C   UNL d   1      58.600  70.597  99.556  0.00  0.00     0.019 A 
ATOM     18  C   UNL d   1      57.353  71.046  99.131  0.00  0.00     0.005 A 
ATOM     19  C   UNL d   1      57.203  72.349  98.666  0.00  0.00     0.038 A 
ATOM     20  C   UNL d   1      58.320  73.182  98.606  0.00  0.00     0.005 A 
ATOM     21  C   UNL d   1      59.569  72.717  99.022  0.00  0.00     0.019 A 
BRANCH  19  22
ATOM     22  C   UNL d   1      55.900  72.838  98.266  0.00  0.00     0.191 A 
ATOM     23  N   UNL d   1      55.495  72.936  96.986  0.00  0.00    -0.105 NA
ATOM     24  O   UNL d   1      54.198  73.428  97.086  0.00  0.00    -0.186 OA
ATOM     25  C   UNL d   1      53.939  73.582  98.415  0.00  0.00     0.252 A 
ATOM     26  N   UNL d   1      54.947  73.241  99.180  0.00  0.00    -0.196 NA
ENDBRANCH  19  22
ENDBRANCH  15  16
ENDBRANCH  12  13
ENDBRANCH   1  12
BRANCH   2  27
ATOM     27  C   UNL d   1      65.191  72.471  97.350  0.00  0.00     0.059 A 
ATOM     28  C   UNL d   1      64.645  73.451  96.445  0.00  0.00     0.017 A 
ATOM     29  C   UNL d   1      64.756  73.552  94.907  0.00  0.00     0.099 A 
ATOM     30  S   UNL d   1      65.614  72.474  93.788  0.00  0.00     0.211 S 
ATOM     31  O   UNL d   1      64.609  71.721  93.100  0.00  0.00    -0.217 OA
ATOM     32  O   UNL d   1      66.793  73.184  93.384  0.00  0.00    -0.217 OA
ATOM     33  C   UNL d   1      66.191  71.367  95.065  0.00  0.00     0.099 A 
ATOM     34  C   UNL d   1      65.927  71.489  96.585  0.00  0.00     0.017 A 
ENDBRANCH   2  27
TORSDOF 6
ENDMDL
MODEL 15
REMARK VINA RESULT:      -6.8      6.355     10.687
REMARK  6 active torsions:
REMARK  status: ('A' for Active; 'I' for Inactive)
REMARK    1  A    between atoms: C_3  and  N_9 
REMARK    2  A    between atoms: N_9  and  C_10 
REMARK       I    between atoms: N_9  and  C_25 
REMARK    3  A    between atoms: C_10  and  C_11 
REMARK       I    between atoms: C_11  and  N_13 
REMARK    4  A    between atoms: N_13  and  C_14 
REMARK    5  A    between atoms: C_17  and  C_20 
REMARK    6  A    between atoms: C_25  and  C_27 
ROOT
ATOM      1  N   UNL d   1      80.931  78.301  96.231  0.00  0.00    -0.237 N 
ATOM      2  C   UNL d   1      80.915  77.672  97.472  0.00  0.00     0.271 C 
ATOM      3  O   UNL d   1      81.345  78.208  98.500  0.00  0.00    -0.266 OA
ENDROOT
BRANCH   1   4
ATOM      4  C   UNL d   1      81.607  79.561  96.157  0.00  0.00     0.067 A 
ATOM      5  C   UNL d   1      83.001  79.630  95.984  0.00  0.00    -0.005 A 
ATOM      6  C   UNL d   1      83.875  78.431  95.687  0.00  0.00     0.033 C 
ATOM      7  C   UNL d   1      83.655  80.865  95.974  0.00  0.00    -0.003 A 
ATOM      8  C   UNL d   1      82.941  82.046  96.126  0.00  0.00    -0.001 A 
ATOM      9  C   UNL d   1      81.561  81.994  96.262  0.00  0.00    -0.003 A 
ATOM     10  C   UNL d   1      80.893  80.767  96.276  0.00  0.00    -0.005 A 
ATOM     11  C   UNL d   1      79.387  80.838  96.439  0.00  0.00     0.033 C 
ENDBRANCH   1   4
BRANCH   1  12
ATOM     12  C   UNL d   1      80.412  77.921  95.031  0.00  0.00     0.045 C 
BRANCH  12  13
ATOM     13  C   UNL d   1      79.924  77.684  93.691  0.00  0.00     0.332 C 
ATOM     14  O   UNL d   1      78.863  78.221  93.392  0.00  0.00    -0.255 OA
ATOM     15  N   UNL d   1      80.715  76.891  92.968  0.00  0.00    -0.200 NA
BRANCH  15  16
ATOM     16  C   UNL d   1      80.070  75.933  92.261  0.00  0.00     0.085 A 
ATOM     17  C   UNL d   1      79.909  75.991  90.866  0.00  0.00     0.019 A 
ATOM     18  C   UNL d   1      79.232  75.001  90.161  0.00  0.00     0.005 A 
ATOM     19  C   UNL d   1      78.685  73.915  90.838  0.00  0.00     0.038 A 
ATOM     20  C   UNL d   1      78.801  73.850  92.226  0.00  0.00     0.005 A 
ATOM     21  C   UNL d   1      79.472  74.856  92.924  0.00  0.00     0.019 A 
BRANCH  19  22
ATOM     22  C   UNL d   1      78.018  72.857  90.107  0.00  0.00     0.191 A 
ATOM     23  N   UNL d   1      76.812  72.991  89.525  0.00  0.00    -0.105 NA
ATOM     24  O   UNL d   1      76.588  71.750  88.938  0.00  0.00    -0.186 OA
ATOM     25  C   UNL d   1      77.678  70.982  89.219  0.00  0.00     0.252 A 
ATOM     26  N   UNL d   1      78.580  71.608  89.934  0.00  0.00    -0.196 NA
ENDBRANCH  19  22
ENDBRANCH  15  16
ENDBRANCH  12  13
ENDBRANCH   1  12
BRANCH   2  27
ATOM     27  C   UNL d   1      80.328  76.306  97.555  0.00  0.00     0.059 A 
ATOM     28  C   UNL d   1      81.011  75.052  97.365  0.00  0.00     0.017 A 
ATOM     29  C   UNL d   1      80.575  73.617  97.739  0.00  0.00     0.099 A 
ATOM     30  S   UNL d   1      79.080  73.090  98.535  0.00  0.00     0.211 S 
ATOM     31  O   UNL d   1      78.282  72.462  97.524  0.00  0.00    -0.217 OA
ATOM     32  O   UNL d   1      79.447  72.753  99.880  0.00  0.00    -0.217 OA
ATOM     33  C   UNL d   1      78.398  74.734  98.671  0.00  0.00     0.099 A 
ATOM     34  C   UNL d   1      79.057  76.052  98.196  0.00  0.00     0.017 A 
ENDBRANCH   2  27
TORSDOF 6
ENDMDL
MODEL 16
REMARK VINA RESULT:      -6.8      2.943      8.639
REMARK  6 active torsions:
REMARK  status: ('A' for Active; 'I' for Inactive)
REMARK    1  A    between atoms: C_3  and  N_9 
REMARK    2  A    between atoms: N_9  and  C_10 
REMARK       I    between atoms: N_9  and  C_25 
REMARK    3  A    between atoms: C_10  and  C_11 
REMARK       I    between atoms: C_11  and  N_13 
REMARK    4  A    between atoms: N_13  and  C_14 
REMARK    5  A    between atoms: C_17  and  C_20 
REMARK    6  A    between atoms: C_25  and  C_27 
ROOT
ATOM      1  N   UNL d   1      77.178  75.153  91.608  0.00  0.00    -0.237 N 
ATOM      2  C   UNL d   1      76.463  76.339  91.749  0.00  0.00     0.271 C 
ATOM      3  O   UNL d   1      77.010  77.433  91.926  0.00  0.00    -0.266 OA
ENDROOT
BRANCH   1   4
ATOM      4  C   UNL d   1      78.592  75.225  91.821  0.00  0.00     0.067 A 
ATOM      5  C   UNL d   1      79.478  75.465  90.756  0.00  0.00    -0.005 A 
ATOM      6  C   UNL d   1      79.035  75.840  89.359  0.00  0.00     0.033 C 
ATOM      7  C   UNL d   1      80.859  75.472  90.969  0.00  0.00    -0.003 A 
ATOM      8  C   UNL d   1      81.382  75.251  92.236  0.00  0.00    -0.001 A 
ATOM      9  C   UNL d   1      80.517  75.047  93.302  0.00  0.00    -0.003 A 
ATOM     10  C   UNL d   1      79.134  75.035  93.105  0.00  0.00    -0.005 A 
ATOM     11  C   UNL d   1      78.294  74.795  94.345  0.00  0.00     0.033 C 
ENDBRANCH   1   4
BRANCH   1  12
ATOM     12  C   UNL d   1      76.764  73.892  91.304  0.00  0.00     0.045 C 
BRANCH  12  13
ATOM     13  C   UNL d   1      76.323  72.611  90.800  0.00  0.00     0.332 C 
ATOM     14  O   UNL d   1      75.581  71.962  91.529  0.00  0.00    -0.255 OA
ATOM     15  N   UNL d   1      76.808  72.318  89.593  0.00  0.00    -0.200 NA
BRANCH  15  16
ATOM     16  C   UNL d   1      77.268  71.051  89.456  0.00  0.00     0.085 A 
ATOM     17  C   UNL d   1      76.505  70.020  88.882  0.00  0.00     0.019 A 
ATOM     18  C   UNL d   1      76.992  68.723  88.761  0.00  0.00     0.005 A 
ATOM     19  C   UNL d   1      78.269  68.413  89.222  0.00  0.00     0.038 A 
ATOM     20  C   UNL d   1      79.034  69.410  89.826  0.00  0.00     0.005 A 
ATOM     21  C   UNL d   1      78.529  70.706  89.952  0.00  0.00     0.019 A 
BRANCH  19  22
ATOM     22  C   UNL d   1      78.801  67.076  89.059  0.00  0.00     0.191 A 
ATOM     23  N   UNL d   1      78.456  66.247  88.057  0.00  0.00    -0.105 NA
ATOM     24  O   UNL d   1      79.215  65.106  88.293  0.00  0.00    -0.186 OA
ATOM     25  C   UNL d   1      79.948  65.350  89.416  0.00  0.00     0.252 A 
ATOM     26  N   UNL d   1      79.730  66.537  89.927  0.00  0.00    -0.196 NA
ENDBRANCH  19  22
ENDBRANCH  15  16
ENDBRANCH  12  13
ENDBRANCH   1  12
BRANCH   2  27
ATOM     27  C   UNL d   1      74.979  76.275  91.656  0.00  0.00     0.059 A 
ATOM     28  C   UNL d   1      74.029  76.501  92.715  0.00  0.00     0.017 A 
ATOM     29  C   UNL d   1      72.509  76.768  92.645  0.00  0.00     0.099 A 
ATOM     30  S   UNL d   1      71.473  76.886  91.209  0.00  0.00     0.211 S 
ATOM     31  O   UNL d   1      70.691  75.686  91.176  0.00  0.00    -0.217 OA
ATOM     32  O   UNL d   1      71.183  78.280  91.045  0.00  0.00    -0.217 OA
ATOM     33  C   UNL d   1      72.795  76.578  90.049  0.00  0.00     0.099 A 
ATOM     34  C   UNL d   1      74.284  76.325  90.389  0.00  0.00     0.017 A 
ENDBRANCH   2  27
TORSDOF 6
ENDMDL
MODEL 17
REMARK VINA RESULT:      -6.7     20.258     22.499
REMARK  6 active torsions:
REMARK  status: ('A' for Active; 'I' for Inactive)
REMARK    1  A    between atoms: C_3  and  N_9 
REMARK    2  A    between atoms: N_9  and  C_10 
REMARK       I    between atoms: N_9  and  C_25 
REMARK    3  A    between atoms: C_10  and  C_11 
REMARK       I    between atoms: C_11  and  N_13 
REMARK    4  A    between atoms: N_13  and  C_14 
REMARK    5  A    between atoms: C_17  and  C_20 
REMARK    6  A    between atoms: C_25  and  C_27 
ROOT
ATOM      1  N   UNL d   1      55.727  80.932  91.067  0.00  0.00    -0.237 N 
ATOM      2  C   UNL d   1      54.355  80.912  90.835  0.00  0.00     0.271 C 
ATOM      3  O   UNL d   1      53.569  80.254  91.527  0.00  0.00    -0.266 OA
ENDROOT
BRANCH   1   4
ATOM      4  C   UNL d   1      56.224  80.035  92.066  0.00  0.00     0.067 A 
ATOM      5  C   UNL d   1      56.422  80.459  93.392  0.00  0.00    -0.005 A 
ATOM      6  C   UNL d   1      55.973  81.803  93.924  0.00  0.00     0.033 C 
ATOM      7  C   UNL d   1      56.964  79.590  94.342  0.00  0.00    -0.003 A 
ATOM      8  C   UNL d   1      57.312  78.290  93.997  0.00  0.00    -0.001 A 
ATOM      9  C   UNL d   1      57.090  77.849  92.700  0.00  0.00    -0.003 A 
ATOM     10  C   UNL d   1      56.549  78.706  91.738  0.00  0.00    -0.005 A 
ATOM     11  C   UNL d   1      56.362  78.112  90.356  0.00  0.00     0.033 C 
ENDBRANCH   1   4
BRANCH   1  12
ATOM     12  C   UNL d   1      56.718  81.667  90.491  0.00  0.00     0.045 C 
BRANCH  12  13
ATOM     13  C   UNL d   1      57.641  82.497  89.750  0.00  0.00     0.332 C 
ATOM     14  O   UNL d   1      58.654  81.949  89.331  0.00  0.00    -0.255 OA
ATOM     15  N   UNL d   1      57.245  83.765  89.638  0.00  0.00    -0.200 NA
BRANCH  15  16
ATOM     16  C   UNL d   1      58.212  84.686  89.864  0.00  0.00     0.085 A 
ATOM     17  C   UNL d   1      58.758  84.922  91.137  0.00  0.00     0.019 A 
ATOM     18  C   UNL d   1      59.743  85.882  91.349  0.00  0.00     0.005 A 
ATOM     19  C   UNL d   1      60.211  86.647  90.284  0.00  0.00     0.038 A 
ATOM     20  C   UNL d   1      59.661  86.455  89.017  0.00  0.00     0.005 A 
ATOM     21  C   UNL d   1      58.665  85.497  88.818  0.00  0.00     0.019 A 
BRANCH  19  22
ATOM     22  C   UNL d   1      61.268  87.615  90.487  0.00  0.00     0.191 A 
ATOM     23  N   UNL d   1      61.329  88.450  91.540  0.00  0.00    -0.105 NA
ATOM     24  O   UNL d   1      62.500  89.170  91.326  0.00  0.00    -0.186 OA
ATOM     25  C   UNL d   1      63.037  88.704  90.164  0.00  0.00     0.252 A 
ATOM     26  N   UNL d   1      62.323  87.758  89.607  0.00  0.00    -0.196 NA
ENDBRANCH  19  22
ENDBRANCH  15  16
ENDBRANCH  12  13
ENDBRANCH   1  12
BRANCH   2  27
ATOM     27  C   UNL d   1      53.822  81.741  89.719  0.00  0.00     0.059 A 
ATOM     28  C   UNL d   1      53.371  83.108  89.789  0.00  0.00     0.017 A 
ATOM     29  C   UNL d   1      53.114  84.127  88.656  0.00  0.00     0.099 A 
ATOM     30  S   UNL d   1      53.312  83.907  86.906  0.00  0.00     0.211 S 
ATOM     31  O   UNL d   1      51.991  83.817  86.358  0.00  0.00    -0.217 OA
ATOM     32  O   UNL d   1      54.502  84.623  86.551  0.00  0.00    -0.217 OA
ATOM     33  C   UNL d   1      53.848  82.208  87.032  0.00  0.00     0.099 A 
ATOM     34  C   UNL d   1      54.024  81.387  88.332  0.00  0.00     0.017 A 
ENDBRANCH   2  27
TORSDOF 6
ENDMDL
MODEL 18
REMARK VINA RESULT:      -6.7     10.622     14.729
REMARK  6 active torsions:
REMARK  status: ('A' for Active; 'I' for Inactive)
REMARK    1  A    between atoms: C_3  and  N_9 
REMARK    2  A    between atoms: N_9  and  C_10 
REMARK       I    between atoms: N_9  and  C_25 
REMARK    3  A    between atoms: C_10  and  C_11 
REMARK       I    between atoms: C_11  and  N_13 
REMARK    4  A    between atoms: N_13  and  C_14 
REMARK    5  A    between atoms: C_17  and  C_20 
REMARK    6  A    between atoms: C_25  and  C_27 
ROOT
ATOM      1  N   UNL d   1      68.375  73.158 101.576  0.00  0.00    -0.237 N 
ATOM      2  C   UNL d   1      67.196  73.675 101.046  0.00  0.00     0.271 C 
ATOM      3  O   UNL d   1      66.580  74.609 101.570  0.00  0.00    -0.266 OA
ENDROOT
BRANCH   1   4
ATOM      4  C   UNL d   1      68.781  73.662 102.854  0.00  0.00     0.067 A 
ATOM      5  C   UNL d   1      69.583  74.811 102.962  0.00  0.00    -0.005 A 
ATOM      6  C   UNL d   1      69.936  75.707 101.794  0.00  0.00     0.033 C 
ATOM      7  C   UNL d   1      70.022  75.257 104.212  0.00  0.00    -0.003 A 
ATOM      8  C   UNL d   1      69.668  74.578 105.370  0.00  0.00    -0.001 A 
ATOM      9  C   UNL d   1      68.848  73.462 105.280  0.00  0.00    -0.003 A 
ATOM     10  C   UNL d   1      68.402  73.003 104.037  0.00  0.00    -0.005 A 
ATOM     11  C   UNL d   1      67.520  71.771 104.068  0.00  0.00     0.033 C 
ENDBRANCH   1   4
BRANCH   1  12
ATOM     12  C   UNL d   1      69.236  72.222 101.091  0.00  0.00     0.045 C 
BRANCH  12  13
ATOM     13  C   UNL d   1      70.259  71.374 100.521  0.00  0.00     0.332 C 
ATOM     14  O   UNL d   1      70.350  70.242 100.982  0.00  0.00    -0.255 OA
ATOM     15  N   UNL d   1      70.970  71.968  99.563  0.00  0.00    -0.200 NA
BRANCH  15  16
ATOM     16  C   UNL d   1      72.308  71.772  99.641  0.00  0.00     0.085 A 
ATOM     17  C   UNL d   1      73.113  72.386 100.615  0.00  0.00     0.019 A 
ATOM     18  C   UNL d   1      74.488  72.180 100.670  0.00  0.00     0.005 A 
ATOM     19  C   UNL d   1      75.106  71.350  99.739  0.00  0.00     0.038 A 
ATOM     20  C   UNL d   1      74.334  70.756  98.741  0.00  0.00     0.005 A 
ATOM     21  C   UNL d   1      72.957  70.980  98.688  0.00  0.00     0.019 A 
BRANCH  19  22
ATOM     22  C   UNL d   1      76.529  71.094  99.817  0.00  0.00     0.191 A 
ATOM     23  N   UNL d   1      77.088  70.212 100.666  0.00  0.00    -0.105 NA
ATOM     24  O   UNL d   1      78.447  70.290 100.378  0.00  0.00    -0.186 OA
ATOM     25  C   UNL d   1      78.583  71.211  99.383  0.00  0.00     0.252 A 
ATOM     26  N   UNL d   1      77.444  71.737  99.007  0.00  0.00    -0.196 NA
ENDBRANCH  19  22
ENDBRANCH  15  16
ENDBRANCH  12  13
ENDBRANCH   1  12
BRANCH   2  27
ATOM     27  C   UNL d   1      66.682  73.084  99.780  0.00  0.00     0.059 A 
ATOM     28  C   UNL d   1      67.237  73.238  98.459  0.00  0.00     0.017 A 
ATOM     29  C   UNL d   1      66.972  72.426  97.171  0.00  0.00     0.099 A 
ATOM     30  S   UNL d   1      65.894  71.036  96.944  0.00  0.00     0.211 S 
ATOM     31  O   UNL d   1      64.768  71.514  96.197  0.00  0.00    -0.217 OA
ATOM     32  O   UNL d   1      66.746  69.886  96.852  0.00  0.00    -0.217 OA
ATOM     33  C   UNL d   1      65.320  71.017  98.634  0.00  0.00     0.099 A 
ATOM     34  C   UNL d   1      65.752  71.977  99.769  0.00  0.00     0.017 A 
ENDBRANCH   2  27
TORSDOF 6
ENDMDL
MODEL 19
REMARK VINA RESULT:      -6.7      7.333     12.175
REMARK  6 active torsions:
REMARK  status: ('A' for Active; 'I' for Inactive)
REMARK    1  A    between atoms: C_3  and  N_9 
REMARK    2  A    between atoms: N_9  and  C_10 
REMARK       I    between atoms: N_9  and  C_25 
REMARK    3  A    between atoms: C_10  and  C_11 
REMARK       I    between atoms: C_11  and  N_13 
REMARK    4  A    between atoms: N_13  and  C_14 
REMARK    5  A    between atoms: C_17  and  C_20 
REMARK    6  A    between atoms: C_25  and  C_27 
ROOT
ATOM      1  N   UNL d   1      74.620  80.755  93.744  0.00  0.00    -0.237 N 
ATOM      2  C   UNL d   1      74.783  79.487  93.194  0.00  0.00     0.271 C 
ATOM      3  O   UNL d   1      73.920  78.946  92.494  0.00  0.00    -0.266 OA
ENDROOT
BRANCH   1   4
ATOM      4  C   UNL d   1      73.334  81.365  93.587  0.00  0.00     0.067 A 
ATOM      5  C   UNL d   1      73.045  82.179  92.478  0.00  0.00    -0.005 A 
ATOM      6  C   UNL d   1      73.965  82.343  91.288  0.00  0.00     0.033 C 
ATOM      7  C   UNL d   1      71.806  82.816  92.368  0.00  0.00    -0.003 A 
ATOM      8  C   UNL d   1      70.835  82.651  93.347  0.00  0.00    -0.001 A 
ATOM      9  C   UNL d   1      71.095  81.822  94.429  0.00  0.00    -0.003 A 
ATOM     10  C   UNL d   1      72.330  81.179  94.554  0.00  0.00    -0.005 A 
ATOM     11  C   UNL d   1      72.497  80.308  95.783  0.00  0.00     0.033 C 
ENDBRANCH   1   4
BRANCH   1  12
ATOM     12  C   UNL d   1      75.486  81.545  94.437  0.00  0.00     0.045 C 
BRANCH  12  13
ATOM     13  C   UNL d   1      76.520  82.232  95.178  0.00  0.00     0.332 C 
ATOM     14  O   UNL d   1      76.752  83.390  94.848  0.00  0.00    -0.255 OA
ATOM     15  N   UNL d   1      77.083  81.483  96.127  0.00  0.00    -0.200 NA
BRANCH  15  16
ATOM     16  C   UNL d   1      78.435  81.557  96.183  0.00  0.00     0.085 A 
ATOM     17  C   UNL d   1      79.117  82.324  97.143  0.00  0.00     0.019 A 
ATOM     18  C   UNL d   1      80.506  82.394  97.176  0.00  0.00     0.005 A 
ATOM     19  C   UNL d   1      81.262  81.698  96.236  0.00  0.00     0.038 A 
ATOM     20  C   UNL d   1      80.607  80.957  95.253  0.00  0.00     0.005 A 
ATOM     21  C   UNL d   1      79.212  80.903  95.222  0.00  0.00     0.019 A 
BRANCH  19  22
ATOM     22  C   UNL d   1      82.708  81.730  96.291  0.00  0.00     0.191 A 
ATOM     23  N   UNL d   1      83.507  81.089  95.419  0.00  0.00    -0.105 NA
ATOM     24  O   UNL d   1      84.791  81.413  95.845  0.00  0.00    -0.186 OA
ATOM     25  C   UNL d   1      84.649  82.219  96.935  0.00  0.00     0.252 A 
ATOM     26  N   UNL d   1      83.398  82.440  97.254  0.00  0.00    -0.196 NA
ENDBRANCH  19  22
ENDBRANCH  15  16
ENDBRANCH  12  13
ENDBRANCH   1  12
BRANCH   2  27
ATOM     27  C   UNL d   1      76.066  78.776  93.446  0.00  0.00     0.059 A 
ATOM     28  C   UNL d   1      76.484  78.141  94.670  0.00  0.00     0.017 A 
ATOM     29  C   UNL d   1      77.623  77.128  94.924  0.00  0.00     0.099 A 
ATOM     30  S   UNL d   1      78.764  76.433  93.756  0.00  0.00     0.211 S 
ATOM     31  O   UNL d   1      80.029  77.058  94.005  0.00  0.00    -0.217 OA
ATOM     32  O   UNL d   1      78.335  75.081  93.542  0.00  0.00    -0.217 OA
ATOM     33  C   UNL d   1      78.104  77.325  92.357  0.00  0.00     0.099 A 
ATOM     34  C   UNL d   1      76.919  78.321  92.370  0.00  0.00     0.017 A 
ENDBRANCH   2  27
TORSDOF 6
ENDMDL
MODEL 20
REMARK VINA RESULT:      -6.6      3.308      8.948
REMARK  6 active torsions:
REMARK  status: ('A' for Active; 'I' for Inactive)
REMARK    1  A    between atoms: C_3  and  N_9 
REMARK    2  A    between atoms: N_9  and  C_10 
REMARK       I    between atoms: N_9  and  C_25 
REMARK    3  A    between atoms: C_10  and  C_11 
REMARK       I    between atoms: C_11  and  N_13 
REMARK    4  A    between atoms: N_13  and  C_14 
REMARK    5  A    between atoms: C_17  and  C_20 
REMARK    6  A    between atoms: C_25  and  C_27 
ROOT
ATOM      1  N   UNL d   1      71.837  77.363  92.617  0.00  0.00    -0.237 N 
ATOM      2  C   UNL d   1      71.736  78.372  93.570  0.00  0.00     0.271 C 
ATOM      3  O   UNL d   1      70.776  78.468  94.344  0.00  0.00    -0.266 OA
ENDROOT
BRANCH   1   4
ATOM      4  C   UNL d   1      70.699  76.507  92.463  0.00  0.00     0.067 A 
ATOM      5  C   UNL d   1      69.569  76.920  91.737  0.00  0.00    -0.005 A 
ATOM      6  C   UNL d   1      69.510  78.192  90.919  0.00  0.00     0.033 C 
ATOM      7  C   UNL d   1      68.443  76.098  91.645  0.00  0.00    -0.003 A 
ATOM      8  C   UNL d   1      68.422  74.854  92.264  0.00  0.00    -0.001 A 
ATOM      9  C   UNL d   1      69.544  74.420  92.955  0.00  0.00    -0.003 A 
ATOM     10  C   UNL d   1      70.678  75.231  93.056  0.00  0.00    -0.005 A 
ATOM     11  C   UNL d   1      71.836  74.650  93.843  0.00  0.00     0.033 C 
ENDBRANCH   1   4
BRANCH   1  12
ATOM     12  C   UNL d   1      72.849  77.037  91.766  0.00  0.00     0.045 C 
BRANCH  12  13
ATOM     13  C   UNL d   1      73.906  76.514  90.930  0.00  0.00     0.332 C 
ATOM     14  O   UNL d   1      73.835  76.771  89.734  0.00  0.00    -0.255 OA
ATOM     15  N   UNL d   1      74.816  75.808  91.601  0.00  0.00    -0.200 NA
BRANCH  15  16
ATOM     16  C   UNL d   1      75.183  74.645  91.012  0.00  0.00     0.085 A 
ATOM     17  C   UNL d   1      76.362  74.510  90.260  0.00  0.00     0.019 A 
ATOM     18  C   UNL d   1      76.715  73.309  89.652  0.00  0.00     0.005 A 
ATOM     19  C   UNL d   1      75.886  72.197  89.776  0.00  0.00     0.038 A 
ATOM     20  C   UNL d   1      74.694  72.314  90.489  0.00  0.00     0.005 A 
ATOM     21  C   UNL d   1      74.345  73.528  91.084  0.00  0.00     0.019 A 
BRANCH  19  22
ATOM     22  C   UNL d   1      76.268  70.931  89.186  0.00  0.00     0.191 A 
ATOM     23  N   UNL d   1      75.397  69.953  88.878  0.00  0.00    -0.105 NA
ATOM     24  O   UNL d   1      76.198  68.955  88.331  0.00  0.00    -0.186 OA
ATOM     25  C   UNL d   1      77.477  69.422  88.359  0.00  0.00     0.252 A 
ATOM     26  N   UNL d   1      77.578  70.622  88.876  0.00  0.00    -0.196 NA
ENDBRANCH  19  22
ENDBRANCH  15  16
ENDBRANCH  12  13
ENDBRANCH   1  12
BRANCH   2  27
ATOM     27  C   UNL d   1      72.850  79.354  93.669  0.00  0.00     0.059 A 
ATOM     28  C   UNL d   1      74.136  79.153  94.287  0.00  0.00     0.017 A 
ATOM     29  C   UNL d   1      75.438  79.976  94.160  0.00  0.00     0.099 A 
ATOM     30  S   UNL d   1      75.735  81.430  93.188  0.00  0.00     0.211 S 
ATOM     31  O   UNL d   1      75.802  82.526  94.109  0.00  0.00    -0.217 OA
ATOM     32  O   UNL d   1      76.529  81.004  92.072  0.00  0.00    -0.217 OA
ATOM     33  C   UNL d   1      74.076  81.511  92.533  0.00  0.00     0.099 A 
ATOM     34  C   UNL d   1      72.914  80.532  92.833  0.00  0.00     0.017 A 
ENDBRANCH   2  27
TORSDOF 6
ENDMDL
