MODEL 1
REMARK VINA RESULT:      -7.6      0.000      0.000
REMARK  3 active torsions:
REMARK  status: ('A' for Active; 'I' for Inactive)
REMARK    1  A    between atoms: C_1  and  CA_3 
REMARK       I    between atoms: C_1  and  N_12 
REMARK    2  A    between atoms: CA_3  and  C_4 
REMARK    3  A    between atoms: CA_16  and  C_21 
ROOT
ATOM      1  C   UNL d   1      76.728  70.388  89.433  0.00  0.00     0.292 C 
ATOM      2  O   UNL d   1      75.664  69.851  89.137  0.00  0.00    -0.264 OA
ATOM      3  N   UNL d   1      76.921  71.597  89.979  0.00  0.00    -0.204 NA
ATOM      4  CA  UNL d   1      75.896  72.190  90.613  0.00  0.00     0.149 A 
ATOM      5  C   UNL d   1      75.581  73.569  90.509  0.00  0.00     0.182 A 
ATOM      6  N   UNL d   1      74.273  73.283  90.685  0.00  0.00    -0.279 N 
ATOM      7  CA  UNL d   1      73.465  74.273  91.170  0.00  0.00     0.114 C 
ATOM      8  C   UNL d   1      74.165  75.542  91.456  0.00  0.00     0.081 C 
ATOM      9  S   UNL d   1      76.086  74.988  91.280  0.00  0.00    -0.108 SA
ATOM     10  C   UNL d   1      74.129  76.106  92.920  0.00  0.00     0.017 C 
ATOM     11  C   UNL d   1      74.041  76.668  90.363  0.00  0.00     0.017 C 
ATOM     12  C   UNL d   1      74.443  71.940  90.719  0.00  0.00     0.278 A 
ATOM     13  O   UNL d   1      73.776  70.984  91.015  0.00  0.00    -0.266 OA
ENDROOT
BRANCH   1  14
ATOM     14  CA  UNL d   1      78.035  69.689  89.097  0.00  0.00     0.128 C 
ATOM     15  N   UNL d   1      79.204  70.482  88.786  0.00  0.00    -0.096 NA
BRANCH  14  16
ATOM     16  C   UNL d   1      78.172  68.215  88.990  0.00  0.00     0.018 A 
ATOM     17  C   UNL d   1      78.020  67.575  87.759  0.00  0.00     0.004 A 
ATOM     18  C   UNL d   1      78.166  66.186  87.632  0.00  0.00     0.042 A 
ATOM     19  C   UNL d   1      78.477  65.336  88.704  0.00  0.00     0.196 A 
ATOM     20  C   UNL d   1      78.628  66.014  89.926  0.00  0.00     0.042 A 
ATOM     21  O   UNL d   1      78.607  64.072  88.574  0.00  0.00    -0.287 OA
ATOM     22  C   UNL d   1      78.486  67.405  90.076  0.00  0.00     0.004 A 
ENDBRANCH  14  16
ENDBRANCH   1  14
BRANCH   7  23
ATOM     23  C   UNL d   1      72.056  74.211  91.609  0.00  0.00     0.224 C 
ATOM     24  O   UNL d   1      71.800  73.602  92.677  0.00  0.00    -0.643 OA
ATOM     25  OXT UNL d   1      71.232  74.796  90.847  0.00  0.00    -0.643 OA
ENDBRANCH   7  23
TORSDOF 3
ENDMDL
MODEL 2
REMARK VINA RESULT:      -7.5      1.456      1.668
REMARK  3 active torsions:
REMARK  status: ('A' for Active; 'I' for Inactive)
REMARK    1  A    between atoms: C_1  and  CA_3 
REMARK       I    between atoms: C_1  and  N_12 
REMARK    2  A    between atoms: CA_3  and  C_4 
REMARK    3  A    between atoms: CA_16  and  C_21 
ROOT
ATOM      1  C   UNL d   1      76.391  69.257  88.395  0.00  0.00     0.292 C 
ATOM      2  O   UNL d   1      75.244  69.206  87.957  0.00  0.00    -0.264 OA
ATOM      3  N   UNL d   1      76.924  70.176  89.213  0.00  0.00    -0.204 NA
ATOM      4  CA  UNL d   1      76.101  70.945  89.945  0.00  0.00     0.149 A 
ATOM      5  C   UNL d   1      76.283  72.335  90.159  0.00  0.00     0.182 A 
ATOM      6  N   UNL d   1      74.945  72.498  90.234  0.00  0.00    -0.279 N 
ATOM      7  CA  UNL d   1      74.474  73.584  90.918  0.00  0.00     0.114 C 
ATOM      8  C   UNL d   1      75.528  74.433  91.508  0.00  0.00     0.081 C 
ATOM      9  S   UNL d   1      77.156  73.287  91.251  0.00  0.00    -0.108 SA
ATOM     10  C   UNL d   1      75.534  74.651  93.063  0.00  0.00     0.017 C 
ATOM     11  C   UNL d   1      75.906  75.734  90.707  0.00  0.00     0.017 C 
ATOM     12  C   UNL d   1      74.646  71.206  89.956  0.00  0.00     0.278 A 
ATOM     13  O   UNL d   1      73.669  70.508  90.006  0.00  0.00    -0.266 OA
ENDROOT
BRANCH   1  14
ATOM     14  CA  UNL d   1      77.412  68.230  87.935  0.00  0.00     0.128 C 
ATOM     15  N   UNL d   1      78.015  68.364  86.627  0.00  0.00    -0.096 NA
BRANCH  14  16
ATOM     16  C   UNL d   1      77.781  67.030  88.727  0.00  0.00     0.018 A 
ATOM     17  C   UNL d   1      77.733  65.758  88.154  0.00  0.00     0.004 A 
ATOM     18  C   UNL d   1      78.098  64.614  88.879  0.00  0.00     0.042 A 
ATOM     19  C   UNL d   1      78.538  64.644  90.210  0.00  0.00     0.196 A 
ATOM     20  C   UNL d   1      78.578  65.941  90.754  0.00  0.00     0.042 A 
ATOM     21  O   UNL d   1      78.866  63.595  90.859  0.00  0.00    -0.287 OA
ATOM     22  C   UNL d   1      78.217  67.101  90.046  0.00  0.00     0.004 A 
ENDBRANCH  14  16
ENDBRANCH   1  14
BRANCH   7  23
ATOM     23  C   UNL d   1      73.090  73.931  91.298  0.00  0.00     0.224 C 
ATOM     24  O   UNL d   1      72.435  73.091  91.964  0.00  0.00    -0.643 OA
ATOM     25  OXT UNL d   1      72.697  75.070  90.909  0.00  0.00    -0.643 OA
ENDBRANCH   7  23
TORSDOF 3
ENDMDL
MODEL 3
REMARK VINA RESULT:      -7.2      2.768      3.721
REMARK  3 active torsions:
REMARK  status: ('A' for Active; 'I' for Inactive)
REMARK    1  A    between atoms: C_1  and  CA_3 
REMARK       I    between atoms: C_1  and  N_12 
REMARK    2  A    between atoms: CA_3  and  C_4 
REMARK    3  A    between atoms: CA_16  and  C_21 
ROOT
ATOM      1  C   UNL d   1      75.360  71.667  91.238  0.00  0.00     0.292 C 
ATOM      2  O   UNL d   1      76.371  72.260  91.603  0.00  0.00    -0.264 OA
ATOM      3  N   UNL d   1      74.113  72.148  91.129  0.00  0.00    -0.204 NA
ATOM      4  CA  UNL d   1      73.938  73.477  91.055  0.00  0.00     0.149 A 
ATOM      5  C   UNL d   1      72.910  74.188  91.727  0.00  0.00     0.182 A 
ATOM      6  N   UNL d   1      73.720  75.264  91.825  0.00  0.00    -0.279 N 
ATOM      7  CA  UNL d   1      73.132  76.490  91.967  0.00  0.00     0.114 C 
ATOM      8  C   UNL d   1      71.656  76.459  91.973  0.00  0.00     0.081 C 
ATOM      9  S   UNL d   1      71.293  74.568  91.406  0.00  0.00    -0.108 SA
ATOM     10  C   UNL d   1      70.883  77.275  90.876  0.00  0.00     0.017 C 
ATOM     11  C   UNL d   1      70.962  76.523  93.384  0.00  0.00     0.017 C 
ATOM     12  C   UNL d   1      74.797  74.661  91.269  0.00  0.00     0.278 A 
ATOM     13  O   UNL d   1      75.868  75.007  90.846  0.00  0.00    -0.266 OA
ENDROOT
BRANCH   1  14
ATOM     14  CA  UNL d   1      75.435  70.180  90.930  0.00  0.00     0.128 C 
ATOM     15  N   UNL d   1      74.935  69.228  91.897  0.00  0.00    -0.096 NA
BRANCH  14  16
ATOM     16  C   UNL d   1      76.075  69.628  89.710  0.00  0.00     0.018 A 
ATOM     17  C   UNL d   1      77.265  68.905  89.797  0.00  0.00     0.004 A 
ATOM     18  C   UNL d   1      77.875  68.357  88.658  0.00  0.00     0.042 A 
ATOM     19  C   UNL d   1      77.352  68.478  87.362  0.00  0.00     0.196 A 
ATOM     20  C   UNL d   1      76.151  69.208  87.312  0.00  0.00     0.042 A 
ATOM     21  O   UNL d   1      77.916  67.974  86.334  0.00  0.00    -0.287 OA
ATOM     22  C   UNL d   1      75.523  69.766  88.441  0.00  0.00     0.004 A 
ENDBRANCH  14  16
ENDBRANCH   1  14
BRANCH   7  23
ATOM     23  C   UNL d   1      73.740  77.836  91.939  0.00  0.00     0.224 C 
ATOM     24  O   UNL d   1      73.601  78.564  92.954  0.00  0.00    -0.643 OA
ATOM     25  OXT UNL d   1      74.358  78.123  90.873  0.00  0.00    -0.643 OA
ENDBRANCH   7  23
TORSDOF 3
ENDMDL
MODEL 4
REMARK VINA RESULT:      -6.9      2.893      3.536
REMARK  3 active torsions:
REMARK  status: ('A' for Active; 'I' for Inactive)
REMARK    1  A    between atoms: C_1  and  CA_3 
REMARK       I    between atoms: C_1  and  N_12 
REMARK    2  A    between atoms: CA_3  and  C_4 
REMARK    3  A    between atoms: CA_16  and  C_21 
ROOT
ATOM      1  C   UNL d   1      77.517  70.166  88.597  0.00  0.00     0.292 C 
ATOM      2  O   UNL d   1      78.715  70.435  88.614  0.00  0.00    -0.264 OA
ATOM      3  N   UNL d   1      76.498  70.901  89.062  0.00  0.00    -0.204 NA
ATOM      4  CA  UNL d   1      76.686  72.216  89.260  0.00  0.00     0.149 A 
ATOM      5  C   UNL d   1      76.197  72.936  90.380  0.00  0.00     0.182 A 
ATOM      6  N   UNL d   1      77.257  73.769  90.306  0.00  0.00    -0.279 N 
ATOM      7  CA  UNL d   1      77.123  75.018  90.847  0.00  0.00     0.114 C 
ATOM      8  C   UNL d   1      75.794  75.286  91.432  0.00  0.00     0.081 C 
ATOM      9  S   UNL d   1      74.744  73.702  90.784  0.00  0.00    -0.108 SA
ATOM     10  C   UNL d   1      74.950  76.482  90.864  0.00  0.00     0.017 C 
ATOM     11  C   UNL d   1      75.678  75.145  92.996  0.00  0.00     0.017 C 
ATOM     12  C   UNL d   1      77.861  73.113  89.287  0.00  0.00     0.278 A 
ATOM     13  O   UNL d   1      78.771  73.327  88.531  0.00  0.00    -0.266 OA
ENDROOT
BRANCH   1  14
ATOM     14  CA  UNL d   1      77.063  68.815  88.070  0.00  0.00     0.128 C 
ATOM     15  N   UNL d   1      76.074  68.759  87.017  0.00  0.00    -0.096 NA
BRANCH  14  16
ATOM     16  C   UNL d   1      77.521  67.520  88.633  0.00  0.00     0.018 A 
ATOM     17  C   UNL d   1      77.910  67.424  89.970  0.00  0.00     0.004 A 
ATOM     18  C   UNL d   1      78.326  66.206  90.527  0.00  0.00     0.042 A 
ATOM     19  C   UNL d   1      78.382  65.002  89.810  0.00  0.00     0.196 A 
ATOM     20  C   UNL d   1      77.980  65.134  88.468  0.00  0.00     0.042 A 
ATOM     21  O   UNL d   1      78.762  63.900  90.329  0.00  0.00    -0.287 OA
ATOM     22  C   UNL d   1      77.559  66.345  87.890  0.00  0.00     0.004 A 
ENDBRANCH  14  16
ENDBRANCH   1  14
BRANCH   7  23
ATOM     23  C   UNL d   1      78.034  76.178  90.779  0.00  0.00     0.224 C 
ATOM     24  O   UNL d   1      78.157  76.890  91.807  0.00  0.00    -0.643 OA
ATOM     25  OXT UNL d   1      78.616  76.337  89.666  0.00  0.00    -0.643 OA
ENDBRANCH   7  23
TORSDOF 3
ENDMDL
MODEL 5
REMARK VINA RESULT:      -6.9     21.851     23.444
REMARK  3 active torsions:
REMARK  status: ('A' for Active; 'I' for Inactive)
REMARK    1  A    between atoms: C_1  and  CA_3 
REMARK       I    between atoms: C_1  and  N_12 
REMARK    2  A    between atoms: CA_3  and  C_4 
REMARK    3  A    between atoms: CA_16  and  C_21 
ROOT
ATOM      1  C   UNL d   1      61.988  88.013  90.558  0.00  0.00     0.292 C 
ATOM      2  O   UNL d   1      62.877  88.427  89.819  0.00  0.00    -0.264 OA
ATOM      3  N   UNL d   1      61.914  88.102  91.894  0.00  0.00    -0.204 NA
ATOM      4  CA  UNL d   1      62.666  89.021  92.522  0.00  0.00     0.149 A 
ATOM      5  C   UNL d   1      63.363  88.790  93.737  0.00  0.00     0.182 A 
ATOM      6  N   UNL d   1      64.317  89.666  93.354  0.00  0.00    -0.279 N 
ATOM      7  CA  UNL d   1      65.061  90.263  94.334  0.00  0.00     0.114 C 
ATOM      8  C   UNL d   1      64.690  89.864  95.706  0.00  0.00     0.081 C 
ATOM      9  S   UNL d   1      62.981  88.861  95.383  0.00  0.00    -0.108 SA
ATOM     10  C   UNL d   1      64.222  90.976  96.711  0.00  0.00     0.017 C 
ATOM     11  C   UNL d   1      65.595  88.770  96.384  0.00  0.00     0.017 C 
ATOM     12  C   UNL d   1      63.785  89.904  92.131  0.00  0.00     0.278 A 
ATOM     13  O   UNL d   1      63.955  90.701  91.247  0.00  0.00    -0.266 OA
ENDROOT
BRANCH   1  14
ATOM     14  CA  UNL d   1      60.833  87.222  89.967  0.00  0.00     0.128 C 
ATOM     15  N   UNL d   1      61.094  86.256  88.922  0.00  0.00    -0.096 NA
BRANCH  14  16
ATOM     16  C   UNL d   1      59.414  87.438  90.345  0.00  0.00     0.018 A 
ATOM     17  C   UNL d   1      58.448  86.472  90.060  0.00  0.00     0.004 A 
ATOM     18  C   UNL d   1      57.105  86.648  90.429  0.00  0.00     0.042 A 
ATOM     19  C   UNL d   1      56.626  87.779  91.105  0.00  0.00     0.196 A 
ATOM     20  C   UNL d   1      57.627  88.729  91.379  0.00  0.00     0.042 A 
ATOM     21  O   UNL d   1      55.401  87.926  91.434  0.00  0.00    -0.287 OA
ATOM     22  C   UNL d   1      58.977  88.573  91.019  0.00  0.00     0.004 A 
ENDBRANCH  14  16
ENDBRANCH   1  14
BRANCH   7  23
ATOM     23  C   UNL d   1      66.046  91.359  94.234  0.00  0.00     0.224 C 
ATOM     24  O   UNL d   1      67.135  91.228  94.848  0.00  0.00    -0.643 OA
ATOM     25  OXT UNL d   1      65.686  92.339  93.519  0.00  0.00    -0.643 OA
ENDBRANCH   7  23
TORSDOF 3
ENDMDL
MODEL 6
REMARK VINA RESULT:      -6.8      1.957      2.624
REMARK  3 active torsions:
REMARK  status: ('A' for Active; 'I' for Inactive)
REMARK    1  A    between atoms: C_1  and  CA_3 
REMARK       I    between atoms: C_1  and  N_12 
REMARK    2  A    between atoms: CA_3  and  C_4 
REMARK    3  A    between atoms: CA_16  and  C_21 
ROOT
ATOM      1  C   UNL d   1      75.123  70.870  90.726  0.00  0.00     0.292 C 
ATOM      2  O   UNL d   1      74.068  70.958  90.103  0.00  0.00    -0.264 OA
ATOM      3  N   UNL d   1      75.754  71.825  91.424  0.00  0.00    -0.204 NA
ATOM      4  CA  UNL d   1      75.057  72.902  91.820  0.00  0.00     0.149 A 
ATOM      5  C   UNL d   1      75.547  74.233  91.778  0.00  0.00     0.182 A 
ATOM      6  N   UNL d   1      74.293  74.687  91.569  0.00  0.00    -0.279 N 
ATOM      7  CA  UNL d   1      74.018  75.980  91.920  0.00  0.00     0.114 C 
ATOM      8  C   UNL d   1      75.161  76.704  92.510  0.00  0.00     0.081 C 
ATOM      9  S   UNL d   1      76.475  75.214  92.797  0.00  0.00    -0.108 SA
ATOM     10  C   UNL d   1      75.015  77.284  93.962  0.00  0.00     0.017 C 
ATOM     11  C   UNL d   1      75.952  77.665  91.546  0.00  0.00     0.017 C 
ATOM     12  C   UNL d   1      73.723  73.460  91.509  0.00  0.00     0.278 A 
ATOM     13  O   UNL d   1      72.606  73.016  91.517  0.00  0.00    -0.266 OA
ENDROOT
BRANCH   1  14
ATOM     14  CA  UNL d   1      75.911  69.571  90.680  0.00  0.00     0.128 C 
ATOM     15  N   UNL d   1      76.129  68.829  91.903  0.00  0.00    -0.096 NA
BRANCH  14  16
ATOM     16  C   UNL d   1      76.551  69.044  89.449  0.00  0.00     0.018 A 
ATOM     17  C   UNL d   1      77.618  68.148  89.531  0.00  0.00     0.004 A 
ATOM     18  C   UNL d   1      78.222  67.622  88.379  0.00  0.00     0.042 A 
ATOM     19  C   UNL d   1      77.816  67.937  87.074  0.00  0.00     0.196 A 
ATOM     20  C   UNL d   1      76.737  68.838  87.030  0.00  0.00     0.042 A 
ATOM     21  O   UNL d   1      78.375  67.451  86.035  0.00  0.00    -0.287 OA
ATOM     22  C   UNL d   1      76.116  69.377  88.171  0.00  0.00     0.004 A 
ENDBRANCH  14  16
ENDBRANCH   1  14
BRANCH   7  23
ATOM     23  C   UNL d   1      72.725  76.692  91.959  0.00  0.00     0.224 C 
ATOM     24  O   UNL d   1      71.862  76.300  92.784  0.00  0.00    -0.643 OA
ATOM     25  OXT UNL d   1      72.617  77.651  91.140  0.00  0.00    -0.643 OA
ENDBRANCH   7  23
TORSDOF 3
ENDMDL
MODEL 7
REMARK VINA RESULT:      -6.8     10.738     11.895
REMARK  3 active torsions:
REMARK  status: ('A' for Active; 'I' for Inactive)
REMARK    1  A    between atoms: C_1  and  CA_3 
REMARK       I    between atoms: C_1  and  N_12 
REMARK    2  A    between atoms: CA_3  and  C_4 
REMARK    3  A    between atoms: CA_16  and  C_21 
ROOT
ATOM      1  C   UNL d   1      81.942  75.432  96.089  0.00  0.00     0.292 C 
ATOM      2  O   UNL d   1      80.849  75.913  95.801  0.00  0.00    -0.264 OA
ATOM      3  N   UNL d   1      83.108  76.071  96.260  0.00  0.00    -0.204 NA
ATOM      4  CA  UNL d   1      83.090  77.392  96.503  0.00  0.00     0.149 A 
ATOM      5  C   UNL d   1      83.993  78.324  95.930  0.00  0.00     0.182 A 
ATOM      6  N   UNL d   1      83.035  79.274  95.969  0.00  0.00    -0.279 N 
ATOM      7  CA  UNL d   1      83.436  80.581  95.985  0.00  0.00     0.114 C 
ATOM      8  C   UNL d   1      84.901  80.766  95.978  0.00  0.00     0.081 C 
ATOM      9  S   UNL d   1      85.543  78.891  96.299  0.00  0.00    -0.108 SA
ATOM     10  C   UNL d   1      85.567  81.540  97.170  0.00  0.00     0.017 C 
ATOM     11  C   UNL d   1      85.554  81.108  94.587  0.00  0.00     0.017 C 
ATOM     12  C   UNL d   1      82.066  78.455  96.441  0.00  0.00     0.278 A 
ATOM     13  O   UNL d   1      80.963  78.586  96.904  0.00  0.00    -0.266 OA
ENDROOT
BRANCH   1  14
ATOM     14  CA  UNL d   1      82.087  73.923  96.204  0.00  0.00     0.128 C 
ATOM     15  N   UNL d   1      82.582  73.169  95.073  0.00  0.00    -0.096 NA
BRANCH  14  16
ATOM     16  C   UNL d   1      81.671  73.149  97.400  0.00  0.00     0.018 A 
ATOM     17  C   UNL d   1      81.661  73.743  98.663  0.00  0.00     0.004 A 
ATOM     18  C   UNL d   1      81.250  73.036  99.802  0.00  0.00     0.042 A 
ATOM     19  C   UNL d   1      80.818  71.702  99.775  0.00  0.00     0.196 A 
ATOM     20  C   UNL d   1      80.836  71.137  98.488  0.00  0.00     0.042 A 
ATOM     21  O   UNL d   1      80.446  71.069 100.820  0.00  0.00    -0.287 OA
ATOM     22  C   UNL d   1      81.243  71.827  97.332  0.00  0.00     0.004 A 
ENDBRANCH  14  16
ENDBRANCH   1  14
BRANCH   7  23
ATOM     23  C   UNL d   1      82.641  81.810  96.184  0.00  0.00     0.224 C 
ATOM     24  O   UNL d   1      82.305  82.108  97.357  0.00  0.00    -0.643 OA
ATOM     25  OXT UNL d   1      82.378  82.454  95.127  0.00  0.00    -0.643 OA
ENDBRANCH   7  23
TORSDOF 3
ENDMDL
MODEL 8
REMARK VINA RESULT:      -6.7      2.426      8.709
REMARK  3 active torsions:
REMARK  status: ('A' for Active; 'I' for Inactive)
REMARK    1  A    between atoms: C_1  and  CA_3 
REMARK       I    between atoms: C_1  and  N_12 
REMARK    2  A    between atoms: CA_3  and  C_4 
REMARK    3  A    between atoms: CA_16  and  C_21 
ROOT
ATOM      1  C   UNL d   1      75.630  71.329  90.924  0.00  0.00     0.292 C 
ATOM      2  O   UNL d   1      74.936  71.110  89.936  0.00  0.00    -0.264 OA
ATOM      3  N   UNL d   1      76.624  70.578  91.420  0.00  0.00    -0.204 NA
ATOM      4  CA  UNL d   1      77.207  69.670  90.621  0.00  0.00     0.149 A 
ATOM      5  C   UNL d   1      77.575  68.362  91.030  0.00  0.00     0.182 A 
ATOM      6  N   UNL d   1      77.351  67.909  89.778  0.00  0.00    -0.279 N 
ATOM      7  CA  UNL d   1      77.996  66.768  89.390  0.00  0.00     0.114 C 
ATOM      8  C   UNL d   1      78.885  66.193  90.420  0.00  0.00     0.081 C 
ATOM      9  S   UNL d   1      78.916  67.663  91.787  0.00  0.00    -0.108 SA
ATOM     10  C   UNL d   1      80.411  66.031  90.091  0.00  0.00     0.017 C 
ATOM     11  C   UNL d   1      78.306  64.984  91.245  0.00  0.00     0.017 C 
ATOM     12  C   UNL d   1      76.903  69.092  89.295  0.00  0.00     0.278 A 
ATOM     13  O   UNL d   1      76.665  69.557  88.212  0.00  0.00    -0.266 OA
ENDROOT
BRANCH   1  14
ATOM     14  CA  UNL d   1      75.335  72.542  91.791  0.00  0.00     0.128 C 
ATOM     15  N   UNL d   1      75.721  72.531  93.185  0.00  0.00    -0.096 NA
BRANCH  14  16
ATOM     16  C   UNL d   1      74.589  73.731  91.308  0.00  0.00     0.018 A 
ATOM     17  C   UNL d   1      75.261  74.796  90.706  0.00  0.00     0.004 A 
ATOM     18  C   UNL d   1      74.573  75.919  90.224  0.00  0.00     0.042 A 
ATOM     19  C   UNL d   1      73.180  76.067  90.296  0.00  0.00     0.196 A 
ATOM     20  C   UNL d   1      72.535  74.976  90.904  0.00  0.00     0.042 A 
ATOM     21  O   UNL d   1      72.566  77.095  89.853  0.00  0.00    -0.287 OA
ATOM     22  C   UNL d   1      73.205  73.841  91.394  0.00  0.00     0.004 A 
ENDBRANCH  14  16
ENDBRANCH   1  14
BRANCH   7  23
ATOM     23  C   UNL d   1      78.073  66.134  88.059  0.00  0.00     0.224 C 
ATOM     24  O   UNL d   1      78.484  66.832  87.098  0.00  0.00    -0.643 OA
ATOM     25  OXT UNL d   1      77.712  64.921  88.021  0.00  0.00    -0.643 OA
ENDBRANCH   7  23
TORSDOF 3
ENDMDL
MODEL 9
REMARK VINA RESULT:      -6.7     21.022     22.695
REMARK  3 active torsions:
REMARK  status: ('A' for Active; 'I' for Inactive)
REMARK    1  A    between atoms: C_1  and  CA_3 
REMARK       I    between atoms: C_1  and  N_12 
REMARK    2  A    between atoms: CA_3  and  C_4 
REMARK    3  A    between atoms: CA_16  and  C_21 
ROOT
ATOM      1  C   UNL d   1      62.884  88.749  90.708  0.00  0.00     0.292 C 
ATOM      2  O   UNL d   1      63.330  87.990  89.852  0.00  0.00    -0.264 OA
ATOM      3  N   UNL d   1      61.649  88.772  91.230  0.00  0.00    -0.204 NA
ATOM      4  CA  UNL d   1      60.880  87.677  91.118  0.00  0.00     0.149 A 
ATOM      5  C   UNL d   1      59.495  87.700  90.811  0.00  0.00     0.182 A 
ATOM      6  N   UNL d   1      59.615  86.510  90.184  0.00  0.00    -0.279 N 
ATOM      7  CA  UNL d   1      58.493  85.737  90.069  0.00  0.00     0.114 C 
ATOM      8  C   UNL d   1      57.285  86.325  90.682  0.00  0.00     0.081 C 
ATOM      9  S   UNL d   1      58.063  87.873  91.695  0.00  0.00    -0.108 SA
ATOM     10  C   UNL d   1      56.559  85.529  91.824  0.00  0.00     0.017 C 
ATOM     11  C   UNL d   1      56.282  87.038  89.701  0.00  0.00     0.017 C 
ATOM     12  C   UNL d   1      60.956  86.418  90.347  0.00  0.00     0.278 A 
ATOM     13  O   UNL d   1      61.793  85.565  90.214  0.00  0.00    -0.266 OA
ENDROOT
BRANCH   1  14
ATOM     14  CA  UNL d   1      63.755  89.879  91.232  0.00  0.00     0.128 C 
ATOM     15  N   UNL d   1      63.747  91.156  90.552  0.00  0.00    -0.096 NA
BRANCH  14  16
ATOM     16  C   UNL d   1      64.691  89.729  92.374  0.00  0.00     0.018 A 
ATOM     17  C   UNL d   1      64.872  90.770  93.286  0.00  0.00     0.004 A 
ATOM     18  C   UNL d   1      65.736  90.641  94.383  0.00  0.00     0.042 A 
ATOM     19  C   UNL d   1      66.474  89.480  94.659  0.00  0.00     0.196 A 
ATOM     20  C   UNL d   1      66.264  88.451  93.724  0.00  0.00     0.042 A 
ATOM     21  O   UNL d   1      67.257  89.376  95.662  0.00  0.00    -0.287 OA
ATOM     22  C   UNL d   1      65.403  88.560  92.617  0.00  0.00     0.004 A 
ENDBRANCH  14  16
ENDBRANCH   1  14
BRANCH   7  23
ATOM     23  C   UNL d   1      58.351  84.348  89.587  0.00  0.00     0.224 C 
ATOM     24  O   UNL d   1      58.965  83.445  90.209  0.00  0.00    -0.643 OA
ATOM     25  OXT UNL d   1      57.603  84.206  88.577  0.00  0.00    -0.643 OA
ENDBRANCH   7  23
TORSDOF 3
ENDMDL
MODEL 10
REMARK VINA RESULT:      -6.7     20.136     21.484
REMARK  3 active torsions:
REMARK  status: ('A' for Active; 'I' for Inactive)
REMARK    1  A    between atoms: C_1  and  CA_3 
REMARK       I    between atoms: C_1  and  N_12 
REMARK    2  A    between atoms: CA_3  and  C_4 
REMARK    3  A    between atoms: CA_16  and  C_21 
ROOT
ATOM      1  C   UNL d   1      66.975  87.940  97.459  0.00  0.00     0.292 C 
ATOM      2  O   UNL d   1      66.571  88.943  98.042  0.00  0.00    -0.264 OA
ATOM      3  N   UNL d   1      66.692  87.537  96.212  0.00  0.00    -0.204 NA
ATOM      4  CA  UNL d   1      66.215  88.436  95.336  0.00  0.00     0.149 A 
ATOM      5  C   UNL d   1      65.168  88.178  94.414  0.00  0.00     0.182 A 
ATOM      6  N   UNL d   1      64.787  89.471  94.486  0.00  0.00    -0.279 N 
ATOM      7  CA  UNL d   1      64.090  89.988  93.429  0.00  0.00     0.114 C 
ATOM      8  C   UNL d   1      63.866  89.034  92.325  0.00  0.00     0.081 C 
ATOM      9  S   UNL d   1      65.059  87.512  92.863  0.00  0.00    -0.108 SA
ATOM     10  C   UNL d   1      64.424  89.389  90.901  0.00  0.00     0.017 C 
ATOM     11  C   UNL d   1      62.451  88.347  92.273  0.00  0.00     0.017 C 
ATOM     12  C   UNL d   1      65.695  89.817  95.430  0.00  0.00     0.278 A 
ATOM     13  O   UNL d   1      66.112  90.839  95.905  0.00  0.00    -0.266 OA
ENDROOT
BRANCH   1  14
ATOM     14  CA  UNL d   1      67.844  86.941  98.206  0.00  0.00     0.128 C 
ATOM     15  N   UNL d   1      67.577  85.526  98.070  0.00  0.00    -0.096 NA
BRANCH  14  16
ATOM     16  C   UNL d   1      68.921  87.336  99.148  0.00  0.00     0.018 A 
ATOM     17  C   UNL d   1      68.659  87.472 100.511  0.00  0.00     0.004 A 
ATOM     18  C   UNL d   1      69.668  87.823 101.420  0.00  0.00     0.042 A 
ATOM     19  C   UNL d   1      71.000  88.060 101.051  0.00  0.00     0.196 A 
ATOM     20  C   UNL d   1      71.229  87.910  99.671  0.00  0.00     0.042 A 
ATOM     21  O   UNL d   1      71.909  88.379 101.888  0.00  0.00    -0.287 OA
ATOM     22  C   UNL d   1      70.233  87.558  98.743  0.00  0.00     0.004 A 
ENDBRANCH  14  16
ENDBRANCH   1  14
BRANCH   7  23
ATOM     23  C   UNL d   1      63.687  91.383  93.157  0.00  0.00     0.224 C 
ATOM     24  O   UNL d   1      62.459  91.650  93.152  0.00  0.00    -0.643 OA
ATOM     25  OXT UNL d   1      64.644  92.187  92.957  0.00  0.00    -0.643 OA
ENDBRANCH   7  23
TORSDOF 3
ENDMDL
MODEL 11
REMARK VINA RESULT:      -6.6      2.885      3.830
REMARK  3 active torsions:
REMARK  status: ('A' for Active; 'I' for Inactive)
REMARK    1  A    between atoms: C_1  and  CA_3 
REMARK       I    between atoms: C_1  and  N_12 
REMARK    2  A    between atoms: CA_3  and  C_4 
REMARK    3  A    between atoms: CA_16  and  C_21 
ROOT
ATOM      1  C   UNL d   1      75.407  71.361  90.661  0.00  0.00     0.292 C 
ATOM      2  O   UNL d   1      76.155  71.074  91.591  0.00  0.00    -0.264 OA
ATOM      3  N   UNL d   1      74.852  72.548  90.380  0.00  0.00    -0.204 NA
ATOM      4  CA  UNL d   1      75.395  73.656  90.912  0.00  0.00     0.149 A 
ATOM      5  C   UNL d   1      74.647  74.738  91.445  0.00  0.00     0.182 A 
ATOM      6  N   UNL d   1      75.637  74.985  92.329  0.00  0.00    -0.279 N 
ATOM      7  CA  UNL d   1      75.730  76.249  92.842  0.00  0.00     0.114 C 
ATOM      8  C   UNL d   1      74.717  77.190  92.324  0.00  0.00     0.081 C 
ATOM      9  S   UNL d   1      73.918  76.129  90.818  0.00  0.00    -0.108 SA
ATOM     10  C   UNL d   1      75.204  78.483  91.579  0.00  0.00     0.017 C 
ATOM     11  C   UNL d   1      73.469  77.450  93.248  0.00  0.00     0.017 C 
ATOM     12  C   UNL d   1      76.402  73.931  91.959  0.00  0.00     0.278 A 
ATOM     13  O   UNL d   1      77.528  73.558  92.157  0.00  0.00    -0.266 OA
ENDROOT
BRANCH   1  14
ATOM     14  CA  UNL d   1      74.942  70.267  89.712  0.00  0.00     0.128 C 
ATOM     15  N   UNL d   1      73.572  69.810  89.772  0.00  0.00    -0.096 NA
BRANCH  14  16
ATOM     16  C   UNL d   1      75.845  69.570  88.762  0.00  0.00     0.018 A 
ATOM     17  C   UNL d   1      76.953  68.860  89.225  0.00  0.00     0.004 A 
ATOM     18  C   UNL d   1      77.806  68.177  88.345  0.00  0.00     0.042 A 
ATOM     19  C   UNL d   1      77.623  68.142  86.955  0.00  0.00     0.196 A 
ATOM     20  C   UNL d   1      76.495  68.863  86.524  0.00  0.00     0.042 A 
ATOM     21  O   UNL d   1      78.407  67.516  86.166  0.00  0.00    -0.287 OA
ATOM     22  C   UNL d   1      75.628  69.555  87.388  0.00  0.00     0.004 A 
ENDBRANCH  14  16
ENDBRANCH   1  14
BRANCH   7  23
ATOM     23  C   UNL d   1      76.782  76.849  93.687  0.00  0.00     0.224 C 
ATOM     24  O   UNL d   1      77.924  76.999  93.186  0.00  0.00    -0.643 OA
ATOM     25  OXT UNL d   1      76.415  77.161  94.857  0.00  0.00    -0.643 OA
ENDBRANCH   7  23
TORSDOF 3
ENDMDL
MODEL 12
REMARK VINA RESULT:      -6.6     10.286     11.887
REMARK  3 active torsions:
REMARK  status: ('A' for Active; 'I' for Inactive)
REMARK    1  A    between atoms: C_1  and  CA_3 
REMARK       I    between atoms: C_1  and  N_12 
REMARK    2  A    between atoms: CA_3  and  C_4 
REMARK    3  A    between atoms: CA_16  and  C_21 
ROOT
ATOM      1  C   UNL d   1      79.472  76.489  98.290  0.00  0.00     0.292 C 
ATOM      2  O   UNL d   1      78.634  77.375  98.439  0.00  0.00    -0.264 OA
ATOM      3  N   UNL d   1      80.689  76.587  97.737  0.00  0.00    -0.204 NA
ATOM      4  CA  UNL d   1      81.257  77.800  97.634  0.00  0.00     0.149 A 
ATOM      5  C   UNL d   1      81.979  78.252  96.499  0.00  0.00     0.182 A 
ATOM      6  N   UNL d   1      81.578  79.517  96.750  0.00  0.00    -0.279 N 
ATOM      7  CA  UNL d   1      82.348  80.536  96.262  0.00  0.00     0.114 C 
ATOM      8  C   UNL d   1      83.549  80.091  95.527  0.00  0.00     0.081 C 
ATOM      9  S   UNL d   1      83.575  78.129  95.953  0.00  0.00    -0.108 SA
ATOM     10  C   UNL d   1      84.959  80.548  96.045  0.00  0.00     0.017 C 
ATOM     11  C   UNL d   1      83.446  80.090  93.956  0.00  0.00     0.017 C 
ATOM     12  C   UNL d   1      80.790  79.192  97.802  0.00  0.00     0.278 A 
ATOM     13  O   UNL d   1      80.218  79.785  98.679  0.00  0.00    -0.266 OA
ENDROOT
BRANCH   1  14
ATOM     14  CA  UNL d   1      79.128  75.062  98.684  0.00  0.00     0.128 C 
ATOM     15  N   UNL d   1      77.821  74.771  99.230  0.00  0.00    -0.096 NA
BRANCH  14  16
ATOM     16  C   UNL d   1      80.095  73.938  98.615  0.00  0.00     0.018 A 
ATOM     17  C   UNL d   1      80.975  73.692  99.670  0.00  0.00     0.004 A 
ATOM     18  C   UNL d   1      81.882  72.622  99.633  0.00  0.00     0.042 A 
ATOM     19  C   UNL d   1      81.980  71.722  98.562  0.00  0.00     0.196 A 
ATOM     20  C   UNL d   1      81.077  71.997  97.520  0.00  0.00     0.042 A 
ATOM     21  O   UNL d   1      82.810  70.752  98.542  0.00  0.00    -0.287 OA
ATOM     22  C   UNL d   1      80.160  73.063  97.535  0.00  0.00     0.004 A 
ENDBRANCH  14  16
ENDBRANCH   1  14
BRANCH   7  23
ATOM     23  C   UNL d   1      82.254  81.989  96.506  0.00  0.00     0.224 C 
ATOM     24  O   UNL d   1      82.081  82.742  95.514  0.00  0.00    -0.643 OA
ATOM     25  OXT UNL d   1      82.354  82.336  97.719  0.00  0.00    -0.643 OA
ENDBRANCH   7  23
TORSDOF 3
ENDMDL
MODEL 13
REMARK VINA RESULT:      -6.5     20.219     21.915
REMARK  3 active torsions:
REMARK  status: ('A' for Active; 'I' for Inactive)
REMARK    1  A    between atoms: C_1  and  CA_3 
REMARK       I    between atoms: C_1  and  N_12 
REMARK    2  A    between atoms: CA_3  and  C_4 
REMARK    3  A    between atoms: CA_16  and  C_21 
ROOT
ATOM      1  C   UNL d   1      61.830  85.632  91.295  0.00  0.00     0.292 C 
ATOM      2  O   UNL d   1      62.208  86.188  90.268  0.00  0.00    -0.264 OA
ATOM      3  N   UNL d   1      61.949  86.062  92.560  0.00  0.00    -0.204 NA
ATOM      4  CA  UNL d   1      62.172  87.368  92.779  0.00  0.00     0.149 A 
ATOM      5  C   UNL d   1      63.077  87.874  93.749  0.00  0.00     0.182 A 
ATOM      6  N   UNL d   1      63.316  88.946  92.964  0.00  0.00    -0.279 N 
ATOM      7  CA  UNL d   1      63.769  90.087  93.566  0.00  0.00     0.114 C 
ATOM      8  C   UNL d   1      63.916  89.981  95.032  0.00  0.00     0.081 C 
ATOM      9  S   UNL d   1      63.005  88.231  95.400  0.00  0.00    -0.108 SA
ATOM     10  C   UNL d   1      63.097  90.964  95.942  0.00  0.00     0.017 C 
ATOM     11  C   UNL d   1      65.372  89.720  95.571  0.00  0.00     0.017 C 
ATOM     12  C   UNL d   1      62.542  88.524  91.936  0.00  0.00     0.278 A 
ATOM     13  O   UNL d   1      62.096  89.003  90.927  0.00  0.00    -0.266 OA
ENDROOT
BRANCH   1  14
ATOM     14  CA  UNL d   1      61.213  84.246  91.212  0.00  0.00     0.128 C 
ATOM     15  N   UNL d   1      61.890  83.128  91.832  0.00  0.00    -0.096 NA
BRANCH  14  16
ATOM     16  C   UNL d   1      59.974  83.946  90.451  0.00  0.00     0.018 A 
ATOM     17  C   UNL d   1      59.634  82.629  90.139  0.00  0.00     0.004 A 
ATOM     18  C   UNL d   1      58.457  82.323  89.440  0.00  0.00     0.042 A 
ATOM     19  C   UNL d   1      57.536  83.288  89.007  0.00  0.00     0.196 A 
ATOM     20  C   UNL d   1      57.908  84.602  89.342  0.00  0.00     0.042 A 
ATOM     21  O   UNL d   1      56.468  82.995  88.371  0.00  0.00    -0.287 OA
ATOM     22  C   UNL d   1      59.082  84.931  90.042  0.00  0.00     0.004 A 
ENDBRANCH  14  16
ENDBRANCH   1  14
BRANCH   7  23
ATOM     23  C   UNL d   1      63.963  91.438  93.003  0.00  0.00     0.224 C 
ATOM     24  O   UNL d   1      65.068  92.003  93.198  0.00  0.00    -0.643 OA
ATOM     25  OXT UNL d   1      62.973  91.898  92.363  0.00  0.00    -0.643 OA
ENDBRANCH   7  23
TORSDOF 3
ENDMDL
MODEL 14
REMARK VINA RESULT:      -6.4      2.484      2.917
REMARK  3 active torsions:
REMARK  status: ('A' for Active; 'I' for Inactive)
REMARK    1  A    between atoms: C_1  and  CA_3 
REMARK       I    between atoms: C_1  and  N_12 
REMARK    2  A    between atoms: CA_3  and  C_4 
REMARK    3  A    between atoms: CA_16  and  C_21 
ROOT
ATOM      1  C   UNL d   1      75.993  70.650  89.100  0.00  0.00     0.292 C 
ATOM      2  O   UNL d   1      74.887  70.628  89.633  0.00  0.00    -0.264 OA
ATOM      3  N   UNL d   1      76.989  71.526  89.297  0.00  0.00    -0.204 NA
ATOM      4  CA  UNL d   1      76.988  72.264  90.419  0.00  0.00     0.149 A 
ATOM      5  C   UNL d   1      77.323  73.641  90.472  0.00  0.00     0.182 A 
ATOM      6  N   UNL d   1      76.467  73.809  91.502  0.00  0.00    -0.279 N 
ATOM      7  CA  UNL d   1      76.685  74.864  92.344  0.00  0.00     0.114 C 
ATOM      8  C   UNL d   1      77.870  75.677  92.004  0.00  0.00     0.081 C 
ATOM      9  S   UNL d   1      78.753  74.534  90.611  0.00  0.00    -0.108 SA
ATOM     10  C   UNL d   1      79.013  75.821  93.071  0.00  0.00     0.017 C 
ATOM     11  C   UNL d   1      77.598  77.012  91.216  0.00  0.00     0.017 C 
ATOM     12  C   UNL d   1      76.009  72.535  91.493  0.00  0.00     0.278 A 
ATOM     13  O   UNL d   1      75.348  71.841  92.220  0.00  0.00    -0.266 OA
ENDROOT
BRANCH   1  14
ATOM     14  CA  UNL d   1      76.319  69.639  88.012  0.00  0.00     0.128 C 
ATOM     15  N   UNL d   1      75.723  69.789  86.702  0.00  0.00    -0.096 NA
BRANCH  14  16
ATOM     16  C   UNL d   1      77.164  68.440  88.235  0.00  0.00     0.018 A 
ATOM     17  C   UNL d   1      77.570  68.087  89.523  0.00  0.00     0.004 A 
ATOM     18  C   UNL d   1      78.351  66.946  89.757  0.00  0.00     0.042 A 
ATOM     19  C   UNL d   1      78.779  66.074  88.745  0.00  0.00     0.196 A 
ATOM     20  C   UNL d   1      78.348  66.458  87.462  0.00  0.00     0.042 A 
ATOM     21  O   UNL d   1      79.490  65.038  88.972  0.00  0.00    -0.287 OA
ATOM     22  C   UNL d   1      77.565  67.597  87.204  0.00  0.00     0.004 A 
ENDBRANCH  14  16
ENDBRANCH   1  14
BRANCH   7  23
ATOM     23  C   UNL d   1      76.026  75.203  93.622  0.00  0.00     0.224 C 
ATOM     24  O   UNL d   1      76.135  74.388  94.573  0.00  0.00    -0.643 OA
ATOM     25  OXT UNL d   1      75.408  76.307  93.629  0.00  0.00    -0.643 OA
ENDBRANCH   7  23
TORSDOF 3
ENDMDL
MODEL 15
REMARK VINA RESULT:      -6.3      5.372      6.387
REMARK  3 active torsions:
REMARK  status: ('A' for Active; 'I' for Inactive)
REMARK    1  A    between atoms: C_1  and  CA_3 
REMARK       I    between atoms: C_1  and  N_12 
REMARK    2  A    between atoms: CA_3  and  C_4 
REMARK    3  A    between atoms: CA_16  and  C_21 
ROOT
ATOM      1  C   UNL d   1      76.039  70.082  91.733  0.00  0.00     0.292 C 
ATOM      2  O   UNL d   1      76.983  70.860  91.836  0.00  0.00    -0.264 OA
ATOM      3  N   UNL d   1      75.462  69.349  92.696  0.00  0.00    -0.204 NA
ATOM      4  CA  UNL d   1      75.646  69.707  93.978  0.00  0.00     0.149 A 
ATOM      5  C   UNL d   1      75.887  68.795  95.037  0.00  0.00     0.182 A 
ATOM      6  N   UNL d   1      76.630  69.728  95.670  0.00  0.00    -0.279 N 
ATOM      7  CA  UNL d   1      76.769  69.618  97.026  0.00  0.00     0.114 C 
ATOM      8  C   UNL d   1      76.050  68.472  97.618  0.00  0.00     0.081 C 
ATOM      9  S   UNL d   1      74.928  67.860  96.070  0.00  0.00    -0.108 SA
ATOM     10  C   UNL d   1      74.959  68.755  98.711  0.00  0.00     0.017 C 
ATOM     11  C   UNL d   1      76.912  67.193  97.932  0.00  0.00     0.017 C 
ATOM     12  C   UNL d   1      76.537  70.652  94.684  0.00  0.00     0.278 A 
ATOM     13  O   UNL d   1      76.789  71.821  94.558  0.00  0.00    -0.266 OA
ENDROOT
BRANCH   1  14
ATOM     14  CA  UNL d   1      75.448  69.801  90.361  0.00  0.00     0.128 C 
ATOM     15  N   UNL d   1      74.046  70.066  90.124  0.00  0.00    -0.096 NA
BRANCH  14  16
ATOM     16  C   UNL d   1      76.215  69.187  89.249  0.00  0.00     0.018 A 
ATOM     17  C   UNL d   1      75.844  69.409  87.922  0.00  0.00     0.004 A 
ATOM     18  C   UNL d   1      76.569  68.856  86.856  0.00  0.00     0.042 A 
ATOM     19  C   UNL d   1      77.707  68.054  87.023  0.00  0.00     0.196 A 
ATOM     20  C   UNL d   1      78.055  67.855  88.371  0.00  0.00     0.042 A 
ATOM     21  O   UNL d   1      78.358  67.556  86.044  0.00  0.00    -0.287 OA
ATOM     22  C   UNL d   1      77.343  68.400  89.454  0.00  0.00     0.004 A 
ENDBRANCH  14  16
ENDBRANCH   1  14
BRANCH   7  23
ATOM     23  C   UNL d   1      77.376  70.557  97.991  0.00  0.00     0.224 C 
ATOM     24  O   UNL d   1      78.401  70.179  98.613  0.00  0.00    -0.643 OA
ATOM     25  OXT UNL d   1      76.790  71.674  98.091  0.00  0.00    -0.643 OA
ENDBRANCH   7  23
TORSDOF 3
ENDMDL
MODEL 16
REMARK VINA RESULT:      -6.2     10.327     12.033
REMARK  3 active torsions:
REMARK  status: ('A' for Active; 'I' for Inactive)
REMARK    1  A    between atoms: C_1  and  CA_3 
REMARK       I    between atoms: C_1  and  N_12 
REMARK    2  A    between atoms: CA_3  and  C_4 
REMARK    3  A    between atoms: CA_16  and  C_21 
ROOT
ATOM      1  C   UNL d   1      80.857  80.896  95.206  0.00  0.00     0.292 C 
ATOM      2  O   UNL d   1      81.035  80.361  94.115  0.00  0.00    -0.264 OA
ATOM      3  N   UNL d   1      79.711  81.366  95.719  0.00  0.00    -0.204 NA
ATOM      4  CA  UNL d   1      78.548  80.932  95.207  0.00  0.00     0.149 A 
ATOM      5  C   UNL d   1      77.423  81.761  94.959  0.00  0.00     0.182 A 
ATOM      6  N   UNL d   1      77.074  80.973  93.920  0.00  0.00    -0.279 N 
ATOM      7  CA  UNL d   1      75.761  80.973  93.535  0.00  0.00     0.114 C 
ATOM      8  C   UNL d   1      74.891  81.845  94.350  0.00  0.00     0.081 C 
ATOM      9  S   UNL d   1      76.114  82.327  95.867  0.00  0.00    -0.108 SA
ATOM     10  C   UNL d   1      73.679  81.198  95.110  0.00  0.00     0.017 C 
ATOM     11  C   UNL d   1      74.547  83.254  93.738  0.00  0.00     0.017 C 
ATOM     12  C   UNL d   1      78.153  80.161  94.009  0.00  0.00     0.278 A 
ATOM     13  O   UNL d   1      78.492  79.105  93.542  0.00  0.00    -0.266 OA
ENDROOT
BRANCH   1  14
ATOM     14  CA  UNL d   1      82.049  81.166  96.109  0.00  0.00     0.128 C 
ATOM     15  N   UNL d   1      81.993  82.263  97.050  0.00  0.00    -0.096 NA
BRANCH  14  16
ATOM     16  C   UNL d   1      83.323  80.409  96.031  0.00  0.00     0.018 A 
ATOM     17  C   UNL d   1      84.542  81.079  95.917  0.00  0.00     0.004 A 
ATOM     18  C   UNL d   1      85.759  80.383  95.864  0.00  0.00     0.042 A 
ATOM     19  C   UNL d   1      85.858  78.985  95.924  0.00  0.00     0.196 A 
ATOM     20  C   UNL d   1      84.613  78.343  96.043  0.00  0.00     0.042 A 
ATOM     21  O   UNL d   1      86.973  78.364  95.874  0.00  0.00    -0.287 OA
ATOM     22  C   UNL d   1      83.382  79.021  96.099  0.00  0.00     0.004 A 
ENDBRANCH  14  16
ENDBRANCH   1  14
BRANCH   7  23
ATOM     23  C   UNL d   1      75.065  80.113  92.558  0.00  0.00     0.224 C 
ATOM     24  O   UNL d   1      74.505  80.669  91.580  0.00  0.00    -0.643 OA
ATOM     25  OXT UNL d   1      75.108  78.873  92.809  0.00  0.00    -0.643 OA
ENDBRANCH   7  23
TORSDOF 3
ENDMDL
MODEL 17
REMARK VINA RESULT:      -6.2      3.188      4.713
REMARK  3 active torsions:
REMARK  status: ('A' for Active; 'I' for Inactive)
REMARK    1  A    between atoms: C_1  and  CA_3 
REMARK       I    between atoms: C_1  and  N_12 
REMARK    2  A    between atoms: CA_3  and  C_4 
REMARK    3  A    between atoms: CA_16  and  C_21 
ROOT
ATOM      1  C   UNL d   1      75.986  74.751  90.759  0.00  0.00     0.292 C 
ATOM      2  O   UNL d   1      76.304  75.927  90.599  0.00  0.00    -0.264 OA
ATOM      3  N   UNL d   1      74.808  74.262  91.172  0.00  0.00    -0.204 NA
ATOM      4  CA  UNL d   1      73.718  75.041  91.084  0.00  0.00     0.149 A 
ATOM      5  C   UNL d   1      72.715  75.131  92.083  0.00  0.00     0.182 A 
ATOM      6  N   UNL d   1      72.487  76.416  91.737  0.00  0.00    -0.279 N 
ATOM      7  CA  UNL d   1      71.261  76.945  92.031  0.00  0.00     0.114 C 
ATOM      8  C   UNL d   1      70.333  76.001  92.685  0.00  0.00     0.081 C 
ATOM      9  S   UNL d   1      71.317  74.264  92.476  0.00  0.00    -0.108 SA
ATOM     10  C   UNL d   1      68.967  75.680  91.981  0.00  0.00     0.017 C 
ATOM     11  C   UNL d   1      70.201  76.123  94.249  0.00  0.00     0.017 C 
ATOM     12  C   UNL d   1      73.474  76.474  90.812  0.00  0.00     0.278 A 
ATOM     13  O   UNL d   1      73.807  77.230  89.938  0.00  0.00    -0.266 OA
ENDROOT
BRANCH   1  14
ATOM     14  CA  UNL d   1      77.027  73.662  90.561  0.00  0.00     0.128 C 
ATOM     15  N   UNL d   1      78.383  73.885  91.012  0.00  0.00    -0.096 NA
BRANCH  14  16
ATOM     16  C   UNL d   1      76.755  72.389  89.848  0.00  0.00     0.018 A 
ATOM     17  C   UNL d   1      76.624  72.366  88.459  0.00  0.00     0.004 A 
ATOM     18  C   UNL d   1      76.388  71.170  87.764  0.00  0.00     0.042 A 
ATOM     19  C   UNL d   1      76.270  69.919  88.388  0.00  0.00     0.196 A 
ATOM     20  C   UNL d   1      76.412  69.979  89.786  0.00  0.00     0.042 A 
ATOM     21  O   UNL d   1      76.055  68.838  87.744  0.00  0.00    -0.287 OA
ATOM     22  C   UNL d   1      76.649  71.166  90.502  0.00  0.00     0.004 A 
ENDBRANCH  14  16
ENDBRANCH   1  14
BRANCH   7  23
ATOM     23  C   UNL d   1      70.676  78.244  91.640  0.00  0.00     0.224 C 
ATOM     24  O   UNL d   1      70.525  79.113  92.534  0.00  0.00    -0.643 OA
ATOM     25  OXT UNL d   1      70.383  78.352  90.413  0.00  0.00    -0.643 OA
ENDBRANCH   7  23
TORSDOF 3
ENDMDL
MODEL 18
REMARK VINA RESULT:      -6.1      4.916      5.815
REMARK  3 active torsions:
REMARK  status: ('A' for Active; 'I' for Inactive)
REMARK    1  A    between atoms: C_1  and  CA_3 
REMARK       I    between atoms: C_1  and  N_12 
REMARK    2  A    between atoms: CA_3  and  C_4 
REMARK    3  A    between atoms: CA_16  and  C_21 
ROOT
ATOM      1  C   UNL d   1      77.478  68.810  92.031  0.00  0.00     0.292 C 
ATOM      2  O   UNL d   1      78.196  69.795  92.175  0.00  0.00    -0.264 OA
ATOM      3  N   UNL d   1      76.525  68.353  92.856  0.00  0.00    -0.204 NA
ATOM      4  CA  UNL d   1      76.007  69.190  93.770  0.00  0.00     0.149 A 
ATOM      5  C   UNL d   1      75.714  68.829  95.111  0.00  0.00     0.182 A 
ATOM      6  N   UNL d   1      75.980  70.091  95.508  0.00  0.00    -0.279 N 
ATOM      7  CA  UNL d   1      75.409  70.526  96.672  0.00  0.00     0.114 C 
ATOM      8  C   UNL d   1      74.544  69.527  97.332  0.00  0.00     0.081 C 
ATOM      9  S   UNL d   1      74.408  68.114  95.913  0.00  0.00    -0.108 SA
ATOM     10  C   UNL d   1      73.034  69.883  97.574  0.00  0.00     0.017 C 
ATOM     11  C   UNL d   1      75.185  68.735  98.532  0.00  0.00     0.017 C 
ATOM     12  C   UNL d   1      76.362  70.529  94.284  0.00  0.00     0.278 A 
ATOM     13  O   UNL d   1      76.584  71.593  93.770  0.00  0.00    -0.266 OA
ENDROOT
BRANCH   1  14
ATOM     14  CA  UNL d   1      77.689  67.900  90.832  0.00  0.00     0.128 C 
ATOM     15  N   UNL d   1      78.375  66.639  91.009  0.00  0.00    -0.096 NA
BRANCH  14  16
ATOM     16  C   UNL d   1      77.299  68.266  89.447  0.00  0.00     0.018 A 
ATOM     17  C   UNL d   1      76.425  69.328  89.213  0.00  0.00     0.004 A 
ATOM     18  C   UNL d   1      76.060  69.704  87.911  0.00  0.00     0.042 A 
ATOM     19  C   UNL d   1      76.533  69.064  86.756  0.00  0.00     0.196 A 
ATOM     20  C   UNL d   1      77.414  68.002  87.029  0.00  0.00     0.042 A 
ATOM     21  O   UNL d   1      76.193  69.415  85.577  0.00  0.00    -0.287 OA
ATOM     22  C   UNL d   1      77.793  67.609  88.325  0.00  0.00     0.004 A 
ENDBRANCH  14  16
ENDBRANCH   1  14
BRANCH   7  23
ATOM     23  C   UNL d   1      75.387  71.878  97.264  0.00  0.00     0.224 C 
ATOM     24  O   UNL d   1      75.956  72.043  98.372  0.00  0.00    -0.643 OA
ATOM     25  OXT UNL d   1      74.787  72.755  96.576  0.00  0.00    -0.643 OA
ENDBRANCH   7  23
TORSDOF 3
ENDMDL
MODEL 19
REMARK VINA RESULT:      -6.0      5.921      9.186
REMARK  3 active torsions:
REMARK  status: ('A' for Active; 'I' for Inactive)
REMARK    1  A    between atoms: C_1  and  CA_3 
REMARK       I    between atoms: C_1  and  N_12 
REMARK    2  A    between atoms: CA_3  and  C_4 
REMARK    3  A    between atoms: CA_16  and  C_21 
ROOT
ATOM      1  C   UNL d   1      78.339  65.131  91.011  0.00  0.00     0.292 C 
ATOM      2  O   UNL d   1      77.635  64.222  90.581  0.00  0.00    -0.264 OA
ATOM      3  N   UNL d   1      78.532  65.495  92.287  0.00  0.00    -0.204 NA
ATOM      4  CA  UNL d   1      78.245  64.615  93.260  0.00  0.00     0.149 A 
ATOM      5  C   UNL d   1      77.599  64.950  94.478  0.00  0.00     0.182 A 
ATOM      6  N   UNL d   1      77.041  63.721  94.518  0.00  0.00    -0.279 N 
ATOM      7  CA  UNL d   1      76.658  63.236  95.738  0.00  0.00     0.114 C 
ATOM      8  C   UNL d   1      76.936  64.147  96.867  0.00  0.00     0.081 C 
ATOM      9  S   UNL d   1      78.089  65.535  95.987  0.00  0.00    -0.108 SA
ATOM     10  C   UNL d   1      77.870  63.645  98.025  0.00  0.00     0.017 C 
ATOM     11  C   UNL d   1      75.723  65.003  97.389  0.00  0.00     0.017 C 
ATOM     12  C   UNL d   1      77.538  63.318  93.325  0.00  0.00     0.278 A 
ATOM     13  O   UNL d   1      77.634  62.280  92.726  0.00  0.00    -0.266 OA
ENDROOT
BRANCH   1  14
ATOM     14  CA  UNL d   1      79.048  66.054  90.033  0.00  0.00     0.128 C 
ATOM     15  N   UNL d   1      80.487  66.184  90.096  0.00  0.00    -0.096 NA
BRANCH  14  16
ATOM     16  C   UNL d   1      78.337  66.906  89.049  0.00  0.00     0.018 A 
ATOM     17  C   UNL d   1      78.357  66.590  87.689  0.00  0.00     0.004 A 
ATOM     18  C   UNL d   1      77.674  67.371  86.745  0.00  0.00     0.042 A 
ATOM     19  C   UNL d   1      76.921  68.508  87.075  0.00  0.00     0.196 A 
ATOM     20  C   UNL d   1      76.918  68.794  88.452  0.00  0.00     0.042 A 
ATOM     21  O   UNL d   1      76.304  69.209  86.205  0.00  0.00    -0.287 OA
ATOM     22  C   UNL d   1      77.596  68.025  89.415  0.00  0.00     0.004 A 
ENDBRANCH  14  16
ENDBRANCH   1  14
BRANCH   7  23
ATOM     23  C   UNL d   1      76.177  61.890  96.110  0.00  0.00     0.224 C 
ATOM     24  O   UNL d   1      75.054  61.801  96.666  0.00  0.00    -0.643 OA
ATOM     25  OXT UNL d   1      76.962  60.942  95.819  0.00  0.00    -0.643 OA
ENDBRANCH   7  23
TORSDOF 3
ENDMDL
MODEL 20
REMARK VINA RESULT:      -6.0      5.588      7.201
REMARK  3 active torsions:
REMARK  status: ('A' for Active; 'I' for Inactive)
REMARK    1  A    between atoms: C_1  and  CA_3 
REMARK       I    between atoms: C_1  and  N_12 
REMARK    2  A    between atoms: CA_3  and  C_4 
REMARK    3  A    between atoms: CA_16  and  C_21 
ROOT
ATOM      1  C   UNL d   1      78.167  66.701  91.947  0.00  0.00     0.292 C 
ATOM      2  O   UNL d   1      77.658  65.591  92.080  0.00  0.00    -0.264 OA
ATOM      3  N   UNL d   1      78.197  67.708  92.831  0.00  0.00    -0.204 NA
ATOM      4  CA  UNL d   1      77.982  67.435  94.129  0.00  0.00     0.149 A 
ATOM      5  C   UNL d   1      77.196  68.236  94.996  0.00  0.00     0.182 A 
ATOM      6  N   UNL d   1      76.846  67.134  95.694  0.00  0.00    -0.279 N 
ATOM      7  CA  UNL d   1      76.453  67.303  96.993  0.00  0.00     0.114 C 
ATOM      8  C   UNL d   1      76.488  68.703  97.460  0.00  0.00     0.081 C 
ATOM      9  S   UNL d   1      77.463  69.604  95.954  0.00  0.00    -0.108 SA
ATOM     10  C   UNL d   1      77.397  69.063  98.689  0.00  0.00     0.017 C 
ATOM     11  C   UNL d   1      75.113  69.470  97.473  0.00  0.00     0.017 C 
ATOM     12  C   UNL d   1      77.495  66.263  94.886  0.00  0.00     0.278 A 
ATOM     13  O   UNL d   1      77.808  65.102  94.928  0.00  0.00    -0.266 OA
ENDROOT
BRANCH   1  14
ATOM     14  CA  UNL d   1      78.790  67.082  90.614  0.00  0.00     0.128 C 
ATOM     15  N   UNL d   1      80.218  66.944  90.432  0.00  0.00    -0.096 NA
BRANCH  14  16
ATOM     16  C   UNL d   1      78.022  67.674  89.491  0.00  0.00     0.018 A 
ATOM     17  C   UNL d   1      78.049  67.089  88.224  0.00  0.00     0.004 A 
ATOM     18  C   UNL d   1      77.314  67.620  87.155  0.00  0.00     0.042 A 
ATOM     19  C   UNL d   1      76.499  68.757  87.261  0.00  0.00     0.196 A 
ATOM     20  C   UNL d   1      76.491  69.318  88.550  0.00  0.00     0.042 A 
ATOM     21  O   UNL d   1      75.834  69.230  86.279  0.00  0.00    -0.287 OA
ATOM     22  C   UNL d   1      77.220  68.802  89.636  0.00  0.00     0.004 A 
ENDBRANCH  14  16
ENDBRANCH   1  14
BRANCH   7  23
ATOM     23  C   UNL d   1      76.172  66.292  98.032  0.00  0.00     0.224 C 
ATOM     24  O   UNL d   1      75.001  66.222  98.482  0.00  0.00    -0.643 OA
ATOM     25  OXT UNL d   1      77.162  65.579  98.367  0.00  0.00    -0.643 OA
ENDBRANCH   7  23
TORSDOF 3
ENDMDL
