MODEL 1
REMARK VINA RESULT:      -7.3      0.000      0.000
REMARK  3 active torsions:
REMARK  status: ('A' for Active; 'I' for Inactive)
REMARK    1  A    between atoms: CA_4  and  C_2 
REMARK       I    between atoms: N_9  and  C_10 
REMARK    2  A    between atoms: C_10  and  CA_12 
REMARK    3  A    between atoms: CA_12  and  C_14 
ROOT
ATOM      1  CA  UNL d   1      73.930  73.788  91.154  0.00  0.00     0.114 C 
ATOM      2  N   UNL d   1      74.518  72.622  90.779  0.00  0.00    -0.279 N 
ATOM      3  C   UNL d   1      74.358  71.317  90.511  0.00  0.00     0.278 C 
ATOM      4  O   UNL d   1      73.468  70.538  90.294  0.00  0.00    -0.266 OA
ATOM      5  CA  UNL d   1      75.818  71.169  90.717  0.00  0.00     0.149 C 
ATOM      6  N   UNL d   1      76.606  70.259  90.120  0.00  0.00    -0.204 NA
ATOM      7  C   UNL d   1      77.788  70.670  89.652  0.00  0.00     0.292 C 
ATOM      8  O   UNL d   1      78.111  71.795  89.271  0.00  0.00    -0.264 OA
ATOM      9  C   UNL d   1      75.868  72.585  90.776  0.00  0.00     0.182 C 
ATOM     10  S   UNL d   1      76.567  73.768  91.763  0.00  0.00    -0.108 SA
ATOM     11  C   UNL d   1      74.877  74.816  91.631  0.00  0.00     0.081 C 
ATOM     12  C   UNL d   1      75.230  75.955  90.610  0.00  0.00     0.017 C 
ATOM     13  C   UNL d   1      74.695  75.362  93.090  0.00  0.00     0.017 C 
ENDROOT
BRANCH   7  14
ATOM     14  CA  UNL d   1      78.795  69.547  89.562  0.00  0.00     0.128 C 
ATOM     15  N   UNL d   1      80.173  69.770  89.929  0.00  0.00    -0.096 NA
BRANCH  14  16
ATOM     16  C   UNL d   1      78.414  68.181  89.146  0.00  0.00     0.018 A 
ATOM     17  C   UNL d   1      78.500  67.112  90.043  0.00  0.00     0.001 A 
ATOM     18  C   UNL d   1      78.156  65.816  89.658  0.00  0.00     0.000 A 
ATOM     19  C   UNL d   1      77.720  65.572  88.359  0.00  0.00     0.000 A 
ATOM     20  C   UNL d   1      77.635  66.620  87.450  0.00  0.00     0.000 A 
ATOM     21  C   UNL d   1      77.984  67.910  87.844  0.00  0.00     0.001 A 
ENDBRANCH  14  16
ENDBRANCH   7  14
BRANCH   1  22
ATOM     22  C   UNL d   1      72.503  74.068  91.378  0.00  0.00     0.224 C 
ATOM     23  O   UNL d   1      71.939  73.341  92.241  0.00  0.00    -0.643 OA
ATOM     24  OXT UNL d   1      71.992  74.981  90.678  0.00  0.00    -0.643 OA
ENDBRANCH   1  22
TORSDOF 3
ENDMDL
MODEL 2
REMARK VINA RESULT:      -7.1      2.623      7.684
REMARK  3 active torsions:
REMARK  status: ('A' for Active; 'I' for Inactive)
REMARK    1  A    between atoms: CA_4  and  C_2 
REMARK       I    between atoms: N_9  and  C_10 
REMARK    2  A    between atoms: C_10  and  CA_12 
REMARK    3  A    between atoms: CA_12  and  C_14 
ROOT
ATOM      1  CA  UNL d   1      77.880  67.284  88.974  0.00  0.00     0.114 C 
ATOM      2  N   UNL d   1      77.030  68.339  88.880  0.00  0.00    -0.279 N 
ATOM      3  C   UNL d   1      76.306  69.132  88.075  0.00  0.00     0.278 C 
ATOM      4  O   UNL d   1      75.906  69.150  86.941  0.00  0.00    -0.266 OA
ATOM      5  CA  UNL d   1      76.283  70.116  89.184  0.00  0.00     0.149 C 
ATOM      6  N   UNL d   1      75.305  71.005  89.423  0.00  0.00    -0.204 NA
ATOM      7  C   UNL d   1      74.904  71.165  90.688  0.00  0.00     0.292 C 
ATOM      8  O   UNL d   1      74.946  70.353  91.612  0.00  0.00    -0.264 OA
ATOM      9  C   UNL d   1      76.869  69.101  89.983  0.00  0.00     0.182 C 
ATOM     10  S   UNL d   1      78.151  68.962  91.079  0.00  0.00    -0.108 SA
ATOM     11  C   UNL d   1      78.608  67.205  90.256  0.00  0.00     0.081 C 
ATOM     12  C   UNL d   1      78.064  66.161  91.295  0.00  0.00     0.017 C 
ATOM     13  C   UNL d   1      80.175  67.241  90.216  0.00  0.00     0.017 C 
ENDROOT
BRANCH   7  14
ATOM     14  CA  UNL d   1      74.287  72.523  90.930  0.00  0.00     0.128 C 
ATOM     15  N   UNL d   1      72.882  72.644  91.233  0.00  0.00    -0.096 NA
BRANCH  14  16
ATOM     16  C   UNL d   1      75.090  73.764  90.915  0.00  0.00     0.018 A 
ATOM     17  C   UNL d   1      76.485  73.713  91.000  0.00  0.00     0.001 A 
ATOM     18  C   UNL d   1      77.251  74.878  91.002  0.00  0.00     0.000 A 
ATOM     19  C   UNL d   1      76.627  76.119  90.921  0.00  0.00     0.000 A 
ATOM     20  C   UNL d   1      75.241  76.192  90.845  0.00  0.00     0.000 A 
ATOM     21  C   UNL d   1      74.484  75.021  90.847  0.00  0.00     0.001 A 
ENDBRANCH  14  16
ENDBRANCH   7  14
BRANCH   1  22
ATOM     22  C   UNL d   1      78.345  66.380  87.910  0.00  0.00     0.224 C 
ATOM     23  O   UNL d   1      78.493  66.912  86.775  0.00  0.00    -0.643 OA
ATOM     24  OXT UNL d   1      78.526  65.176  88.233  0.00  0.00    -0.643 OA
ENDBRANCH   1  22
TORSDOF 3
ENDMDL
MODEL 3
REMARK VINA RESULT:      -7.1     19.208     21.488
REMARK  3 active torsions:
REMARK  status: ('A' for Active; 'I' for Inactive)
REMARK    1  A    between atoms: CA_4  and  C_2 
REMARK       I    between atoms: N_9  and  C_10 
REMARK    2  A    between atoms: C_10  and  CA_12 
REMARK    3  A    between atoms: CA_12  and  C_14 
ROOT
ATOM      1  CA  UNL d   1      64.386  90.232  93.476  0.00  0.00     0.114 C 
ATOM      2  N   UNL d   1      65.286  89.991  94.465  0.00  0.00    -0.279 N 
ATOM      3  C   UNL d   1      66.132  90.511  95.368  0.00  0.00     0.278 C 
ATOM      4  O   UNL d   1      66.369  91.572  95.882  0.00  0.00    -0.266 OA
ATOM      5  CA  UNL d   1      66.793  89.186  95.407  0.00  0.00     0.149 C 
ATOM      6  N   UNL d   1      67.432  88.659  96.464  0.00  0.00    -0.204 NA
ATOM      7  C   UNL d   1      67.209  87.372  96.749  0.00  0.00     0.292 C 
ATOM      8  O   UNL d   1      66.210  86.696  96.504  0.00  0.00    -0.264 OA
ATOM      9  C   UNL d   1      65.716  88.720  94.611  0.00  0.00     0.182 C 
ATOM     10  S   UNL d   1      65.510  87.785  93.215  0.00  0.00    -0.108 SA
ATOM     11  C   UNL d   1      64.106  89.066  92.616  0.00  0.00     0.081 C 
ATOM     12  C   UNL d   1      62.765  88.302  92.905  0.00  0.00     0.017 C 
ATOM     13  C   UNL d   1      64.394  89.199  91.081  0.00  0.00     0.017 C 
ENDROOT
BRANCH   7  14
ATOM     14  CA  UNL d   1      68.351  86.744  97.513  0.00  0.00     0.128 C 
ATOM     15  N   UNL d   1      68.977  85.537  97.030  0.00  0.00    -0.096 NA
BRANCH  14  16
ATOM     16  C   UNL d   1      68.902  87.351  98.742  0.00  0.00     0.018 A 
ATOM     17  C   UNL d   1      70.240  87.757  98.801  0.00  0.00     0.001 A 
ATOM     18  C   UNL d   1      70.774  88.318  99.961  0.00  0.00     0.000 A 
ATOM     19  C   UNL d   1      69.972  88.480 101.086  0.00  0.00     0.000 A 
ATOM     20  C   UNL d   1      68.642  88.075 101.051  0.00  0.00     0.000 A 
ATOM     21  C   UNL d   1      68.119  87.513  99.889  0.00  0.00     0.001 A 
ENDBRANCH  14  16
ENDBRANCH   7  14
BRANCH   1  22
ATOM     22  C   UNL d   1      63.859  91.524  93.009  0.00  0.00     0.224 C 
ATOM     23  O   UNL d   1      64.729  92.393  92.726  0.00  0.00    -0.643 OA
ATOM     24  OXT UNL d   1      62.605  91.634  92.957  0.00  0.00    -0.643 OA
ENDBRANCH   1  22
TORSDOF 3
ENDMDL
MODEL 4
REMARK VINA RESULT:      -6.9      1.884      2.291
REMARK  3 active torsions:
REMARK  status: ('A' for Active; 'I' for Inactive)
REMARK    1  A    between atoms: CA_4  and  C_2 
REMARK       I    between atoms: N_9  and  C_10 
REMARK    2  A    between atoms: C_10  and  CA_12 
REMARK    3  A    between atoms: CA_12  and  C_14 
ROOT
ATOM      1  CA  UNL d   1      75.518  74.528  91.969  0.00  0.00     0.114 C 
ATOM      2  N   UNL d   1      75.218  73.437  91.218  0.00  0.00    -0.279 N 
ATOM      3  C   UNL d   1      74.321  72.479  90.934  0.00  0.00     0.278 C 
ATOM      4  O   UNL d   1      73.161  72.235  91.133  0.00  0.00    -0.266 OA
ATOM      5  CA  UNL d   1      75.437  71.715  90.327  0.00  0.00     0.149 C 
ATOM      6  N   UNL d   1      75.329  70.843  89.311  0.00  0.00    -0.204 NA
ATOM      7  C   UNL d   1      76.245  70.900  88.340  0.00  0.00     0.292 C 
ATOM      8  O   UNL d   1      76.910  71.869  87.971  0.00  0.00    -0.264 OA
ATOM      9  C   UNL d   1      76.221  72.884  90.504  0.00  0.00     0.182 C 
ATOM     10  S   UNL d   1      77.755  73.278  91.099  0.00  0.00    -0.108 SA
ATOM     11  C   UNL d   1      76.954  74.872  91.988  0.00  0.00     0.081 C 
ATOM     12  C   UNL d   1      77.389  76.064  91.064  0.00  0.00     0.017 C 
ATOM     13  C   UNL d   1      77.685  74.898  93.374  0.00  0.00     0.017 C 
ENDROOT
BRANCH   7  14
ATOM     14  CA  UNL d   1      76.400  69.584  87.614  0.00  0.00     0.128 C 
ATOM     15  N   UNL d   1      75.875  69.419  86.281  0.00  0.00    -0.096 NA
BRANCH  14  16
ATOM     16  C   UNL d   1      77.125  68.441  88.207  0.00  0.00     0.018 A 
ATOM     17  C   UNL d   1      77.737  68.555  89.460  0.00  0.00     0.001 A 
ATOM     18  C   UNL d   1      78.435  67.487  90.022  0.00  0.00     0.000 A 
ATOM     19  C   UNL d   1      78.536  66.283  89.332  0.00  0.00     0.000 A 
ATOM     20  C   UNL d   1      77.942  66.152  88.082  0.00  0.00     0.000 A 
ATOM     21  C   UNL d   1      77.249  67.226  87.528  0.00  0.00     0.001 A 
ENDBRANCH  14  16
ENDBRANCH   7  14
BRANCH   1  22
ATOM     22  C   UNL d   1      74.669  75.241  92.936  0.00  0.00     0.224 C 
ATOM     23  O   UNL d   1      74.251  74.546  93.904  0.00  0.00    -0.643 OA
ATOM     24  OXT UNL d   1      74.432  76.453  92.692  0.00  0.00    -0.643 OA
ENDBRANCH   1  22
TORSDOF 3
ENDMDL
MODEL 5
REMARK VINA RESULT:      -6.8     20.341     22.764
REMARK  3 active torsions:
REMARK  status: ('A' for Active; 'I' for Inactive)
REMARK    1  A    between atoms: CA_4  and  C_2 
REMARK       I    between atoms: N_9  and  C_10 
REMARK    2  A    between atoms: C_10  and  CA_12 
REMARK    3  A    between atoms: CA_12  and  C_14 
ROOT
ATOM      1  CA  UNL d   1      65.275  89.717  94.551  0.00  0.00     0.114 C 
ATOM      2  N   UNL d   1      64.299  89.730  93.606  0.00  0.00    -0.279 N 
ATOM      3  C   UNL d   1      63.365  90.448  92.962  0.00  0.00     0.278 C 
ATOM      4  O   UNL d   1      63.057  91.599  92.803  0.00  0.00    -0.266 OA
ATOM      5  CA  UNL d   1      62.738  89.160  92.584  0.00  0.00     0.149 C 
ATOM      6  N   UNL d   1      62.024  88.933  91.469  0.00  0.00    -0.204 NA
ATOM      7  C   UNL d   1      62.256  87.798  90.801  0.00  0.00     0.292 C 
ATOM      8  O   UNL d   1      63.290  87.131  90.761  0.00  0.00    -0.264 OA
ATOM      9  C   UNL d   1      63.892  88.537  93.124  0.00  0.00     0.182 C 
ATOM     10  S   UNL d   1      64.242  87.247  94.162  0.00  0.00    -0.108 SA
ATOM     11  C   UNL d   1      65.659  88.366  95.006  0.00  0.00     0.081 C 
ATOM     12  C   UNL d   1      66.989  87.789  94.405  0.00  0.00     0.017 C 
ATOM     13  C   UNL d   1      65.501  88.031  96.529  0.00  0.00     0.017 C 
ENDROOT
BRANCH   7  14
ATOM     14  CA  UNL d   1      61.068  87.363  89.974  0.00  0.00     0.128 C 
ATOM     15  N   UNL d   1      61.210  87.135  88.556  0.00  0.00    -0.096 NA
BRANCH  14  16
ATOM     16  C   UNL d   1      59.743  87.109  90.575  0.00  0.00     0.018 A 
ATOM     17  C   UNL d   1      59.337  85.808  90.888  0.00  0.00     0.001 A 
ATOM     18  C   UNL d   1      58.083  85.555  91.443  0.00  0.00     0.000 A 
ATOM     19  C   UNL d   1      57.210  86.609  91.691  0.00  0.00     0.000 A 
ATOM     20  C   UNL d   1      57.590  87.910  91.380  0.00  0.00     0.000 A 
ATOM     21  C   UNL d   1      58.845  88.151  90.824  0.00  0.00     0.001 A 
ENDBRANCH  14  16
ENDBRANCH   7  14
BRANCH   1  22
ATOM     22  C   UNL d   1      65.806  90.841  95.338  0.00  0.00     0.224 C 
ATOM     23  O   UNL d   1      64.963  91.446  96.056  0.00  0.00    -0.643 OA
ATOM     24  OXT UNL d   1      67.033  91.094  95.201  0.00  0.00    -0.643 OA
ENDBRANCH   1  22
TORSDOF 3
ENDMDL
MODEL 6
REMARK VINA RESULT:      -6.8     21.793     23.962
REMARK  3 active torsions:
REMARK  status: ('A' for Active; 'I' for Inactive)
REMARK    1  A    between atoms: CA_4  and  C_2 
REMARK       I    between atoms: N_9  and  C_10 
REMARK    2  A    between atoms: C_10  and  CA_12 
REMARK    3  A    between atoms: CA_12  and  C_14 
ROOT
ATOM      1  CA  UNL d   1      63.196  89.860  93.439  0.00  0.00     0.114 C 
ATOM      2  N   UNL d   1      61.935  89.360  93.503  0.00  0.00    -0.279 N 
ATOM      3  C   UNL d   1      60.879  89.068  94.278  0.00  0.00     0.278 C 
ATOM      4  O   UNL d   1      60.471  89.309  95.384  0.00  0.00    -0.266 OA
ATOM      5  CA  UNL d   1      60.426  88.162  93.197  0.00  0.00     0.149 C 
ATOM      6  N   UNL d   1      59.149  87.852  92.916  0.00  0.00    -0.204 NA
ATOM      7  C   UNL d   1      58.779  87.838  91.632  0.00  0.00     0.292 C 
ATOM      8  O   UNL d   1      59.256  88.474  90.692  0.00  0.00    -0.264 OA
ATOM      9  C   UNL d   1      61.470  88.715  92.412  0.00  0.00     0.182 C 
ATOM     10  S   UNL d   1      62.703  88.151  91.400  0.00  0.00    -0.108 SA
ATOM     11  C   UNL d   1      63.926  89.503  92.206  0.00  0.00     0.081 C 
ATOM     12  C   UNL d   1      64.012  90.620  91.107  0.00  0.00     0.017 C 
ATOM     13  C   UNL d   1      65.270  88.708  92.351  0.00  0.00     0.017 C 
ENDROOT
BRANCH   7  14
ATOM     14  CA  UNL d   1      57.587  86.943  91.385  0.00  0.00     0.128 C 
ATOM     15  N   UNL d   1      56.807  86.443  92.490  0.00  0.00    -0.096 NA
BRANCH  14  16
ATOM     16  C   UNL d   1      57.145  86.584  90.021  0.00  0.00     0.018 A 
ATOM     17  C   UNL d   1      55.929  87.057  89.517  0.00  0.00     0.001 A 
ATOM     18  C   UNL d   1      55.495  86.713  88.237  0.00  0.00     0.000 A 
ATOM     19  C   UNL d   1      56.275  85.882  87.440  0.00  0.00     0.000 A 
ATOM     20  C   UNL d   1      57.484  85.394  87.925  0.00  0.00     0.000 A 
ATOM     21  C   UNL d   1      57.907  85.742  89.207  0.00  0.00     0.001 A 
ENDBRANCH  14  16
ENDBRANCH   7  14
BRANCH   1  22
ATOM     22  C   UNL d   1      63.996  90.478  94.508  0.00  0.00     0.224 C 
ATOM     23  O   UNL d   1      64.190  89.756  95.525  0.00  0.00    -0.643 OA
ATOM     24  OXT UNL d   1      64.383  91.660  94.309  0.00  0.00    -0.643 OA
ENDBRANCH   1  22
TORSDOF 3
ENDMDL
MODEL 7
REMARK VINA RESULT:      -6.7      2.622      7.657
REMARK  3 active torsions:
REMARK  status: ('A' for Active; 'I' for Inactive)
REMARK    1  A    between atoms: CA_4  and  C_2 
REMARK       I    between atoms: N_9  and  C_10 
REMARK    2  A    between atoms: C_10  and  CA_12 
REMARK    3  A    between atoms: CA_12  and  C_14 
ROOT
ATOM      1  CA  UNL d   1      77.819  67.498  89.087  0.00  0.00     0.114 C 
ATOM      2  N   UNL d   1      77.314  68.751  88.948  0.00  0.00    -0.279 N 
ATOM      3  C   UNL d   1      76.764  69.657  88.124  0.00  0.00     0.278 C 
ATOM      4  O   UNL d   1      76.252  69.702  87.037  0.00  0.00    -0.266 OA
ATOM      5  CA  UNL d   1      77.168  70.690  89.107  0.00  0.00     0.149 C 
ATOM      6  N   UNL d   1      76.534  71.854  89.327  0.00  0.00    -0.204 NA
ATOM      7  C   UNL d   1      76.356  72.235  90.596  0.00  0.00     0.292 C 
ATOM      8  O   UNL d   1      76.269  71.531  91.602  0.00  0.00    -0.264 OA
ATOM      9  C   UNL d   1      77.521  69.616  89.963  0.00  0.00     0.182 C 
ATOM     10  S   UNL d   1      78.828  69.184  90.947  0.00  0.00    -0.108 SA
ATOM     11  C   UNL d   1      78.642  67.309  90.298  0.00  0.00     0.081 C 
ATOM     12  C   UNL d   1      77.945  66.573  91.497  0.00  0.00     0.017 C 
ATOM     13  C   UNL d   1      80.132  66.859  90.112  0.00  0.00     0.017 C 
ENDROOT
BRANCH   7  14
ATOM     14  CA  UNL d   1      76.202  73.732  90.732  0.00  0.00     0.128 C 
ATOM     15  N   UNL d   1      77.365  74.585  90.772  0.00  0.00    -0.096 NA
BRANCH  14  16
ATOM     16  C   UNL d   1      74.877  74.385  90.781  0.00  0.00     0.018 A 
ATOM     17  C   UNL d   1      73.750  73.681  91.219  0.00  0.00     0.001 A 
ATOM     18  C   UNL d   1      72.493  74.283  91.256  0.00  0.00     0.000 A 
ATOM     19  C   UNL d   1      72.344  75.605  90.849  0.00  0.00     0.000 A 
ATOM     20  C   UNL d   1      73.451  76.320  90.402  0.00  0.00     0.000 A 
ATOM     21  C   UNL d   1      74.702  75.708  90.367  0.00  0.00     0.001 A 
ENDBRANCH  14  16
ENDBRANCH   7  14
BRANCH   1  22
ATOM     22  C   UNL d   1      77.862  66.409  88.098  0.00  0.00     0.224 C 
ATOM     23  O   UNL d   1      77.342  65.320  88.470  0.00  0.00    -0.643 OA
ATOM     24  OXT UNL d   1      78.425  66.666  87.002  0.00  0.00    -0.643 OA
ENDBRANCH   1  22
TORSDOF 3
ENDMDL
MODEL 8
REMARK VINA RESULT:      -6.5     11.676     13.810
REMARK  3 active torsions:
REMARK  status: ('A' for Active; 'I' for Inactive)
REMARK    1  A    between atoms: CA_4  and  C_2 
REMARK       I    between atoms: N_9  and  C_10 
REMARK    2  A    between atoms: C_10  and  CA_12 
REMARK    3  A    between atoms: CA_12  and  C_14 
ROOT
ATOM      1  CA  UNL d   1      79.908  81.798  97.053  0.00  0.00     0.114 C 
ATOM      2  N   UNL d   1      78.730  82.228  96.529  0.00  0.00    -0.279 N 
ATOM      3  C   UNL d   1      77.600  82.924  96.725  0.00  0.00     0.278 C 
ATOM      4  O   UNL d   1      77.150  83.723  97.503  0.00  0.00    -0.266 OA
ATOM      5  CA  UNL d   1      77.027  82.179  95.579  0.00  0.00     0.149 C 
ATOM      6  N   UNL d   1      76.083  82.636  94.739  0.00  0.00    -0.204 NA
ATOM      7  C   UNL d   1      76.251  82.412  93.433  0.00  0.00     0.292 C 
ATOM      8  O   UNL d   1      77.302  82.256  92.811  0.00  0.00    -0.264 OA
ATOM      9  C   UNL d   1      78.335  81.674  95.364  0.00  0.00     0.182 C 
ATOM     10  S   UNL d   1      79.058  80.174  95.062  0.00  0.00    -0.108 SA
ATOM     11  C   UNL d   1      80.524  80.676  96.316  0.00  0.00     0.081 C 
ATOM     12  C   UNL d   1      81.712  81.050  95.360  0.00  0.00     0.017 C 
ATOM     13  C   UNL d   1      80.785  79.341  97.094  0.00  0.00     0.017 C 
ENDROOT
BRANCH   7  14
ATOM     14  CA  UNL d   1      74.943  82.409  92.676  0.00  0.00     0.128 C 
ATOM     15  N   UNL d   1      74.920  82.148  91.257  0.00  0.00    -0.096 NA
BRANCH  14  16
ATOM     16  C   UNL d   1      73.645  82.621  93.350  0.00  0.00     0.018 A 
ATOM     17  C   UNL d   1      73.126  83.910  93.511  0.00  0.00     0.001 A 
ATOM     18  C   UNL d   1      71.909  84.123  94.158  0.00  0.00     0.000 A 
ATOM     19  C   UNL d   1      71.191  83.042  94.659  0.00  0.00     0.000 A 
ATOM     20  C   UNL d   1      71.693  81.753  94.516  0.00  0.00     0.000 A 
ATOM     21  C   UNL d   1      72.911  81.552  93.870  0.00  0.00     0.001 A 
ENDBRANCH  14  16
ENDBRANCH   7  14
BRANCH   1  22
ATOM     22  C   UNL d   1      80.507  82.122  98.357  0.00  0.00     0.224 C 
ATOM     23  O   UNL d   1      79.781  81.879  99.361  0.00  0.00    -0.643 OA
ATOM     24  OXT UNL d   1      81.662  82.622  98.337  0.00  0.00    -0.643 OA
ENDBRANCH   1  22
TORSDOF 3
ENDMDL
MODEL 9
REMARK VINA RESULT:      -6.5     10.900     13.797
REMARK  3 active torsions:
REMARK  status: ('A' for Active; 'I' for Inactive)
REMARK    1  A    between atoms: CA_4  and  C_2 
REMARK       I    between atoms: N_9  and  C_10 
REMARK    2  A    between atoms: C_10  and  CA_12 
REMARK    3  A    between atoms: CA_12  and  C_14 
ROOT
ATOM      1  CA  UNL d   1      84.369  79.495  95.874  0.00  0.00     0.114 C 
ATOM      2  N   UNL d   1      83.249  80.256  95.984  0.00  0.00    -0.279 N 
ATOM      3  C   UNL d   1      82.690  81.369  96.483  0.00  0.00     0.278 C 
ATOM      4  O   UNL d   1      83.030  82.409  96.982  0.00  0.00    -0.266 OA
ATOM      5  CA  UNL d   1      81.375  80.718  96.272  0.00  0.00     0.149 C 
ATOM      6  N   UNL d   1      80.220  81.352  96.011  0.00  0.00    -0.204 NA
ATOM      7  C   UNL d   1      79.431  80.844  95.059  0.00  0.00     0.292 C 
ATOM      8  O   UNL d   1      79.751  80.169  94.080  0.00  0.00    -0.264 OA
ATOM      9  C   UNL d   1      82.085  79.702  95.582  0.00  0.00     0.182 C 
ATOM     10  S   UNL d   1      82.129  78.011  95.555  0.00  0.00    -0.108 SA
ATOM     11  C   UNL d   1      84.116  78.106  95.440  0.00  0.00     0.081 C 
ATOM     12  C   UNL d   1      84.411  77.791  93.931  0.00  0.00     0.017 C 
ATOM     13  C   UNL d   1      84.572  76.945  96.390  0.00  0.00     0.017 C 
ENDROOT
BRANCH   7  14
ATOM     14  CA  UNL d   1      77.981  81.225  95.246  0.00  0.00     0.128 C 
ATOM     15  N   UNL d   1      77.344  81.067  96.531  0.00  0.00    -0.096 NA
BRANCH  14  16
ATOM     16  C   UNL d   1      77.176  81.812  94.155  0.00  0.00     0.018 A 
ATOM     17  C   UNL d   1      76.621  83.089  94.283  0.00  0.00     0.001 A 
ATOM     18  C   UNL d   1      75.848  83.647  93.265  0.00  0.00     0.000 A 
ATOM     19  C   UNL d   1      75.616  82.928  92.097  0.00  0.00     0.000 A 
ATOM     20  C   UNL d   1      76.152  81.652  91.953  0.00  0.00     0.000 A 
ATOM     21  C   UNL d   1      76.921  81.104  92.978  0.00  0.00     0.001 A 
ENDBRANCH  14  16
ENDBRANCH   7  14
BRANCH   1  22
ATOM     22  C   UNL d   1      85.729  79.786  96.354  0.00  0.00     0.224 C 
ATOM     23  O   UNL d   1      86.636  79.724  95.478  0.00  0.00    -0.643 OA
ATOM     24  OXT UNL d   1      85.850  80.045  97.580  0.00  0.00    -0.643 OA
ENDBRANCH   1  22
TORSDOF 3
ENDMDL
MODEL 10
REMARK VINA RESULT:      -6.4      4.872      6.875
REMARK  3 active torsions:
REMARK  status: ('A' for Active; 'I' for Inactive)
REMARK    1  A    between atoms: CA_4  and  C_2 
REMARK       I    between atoms: N_9  and  C_10 
REMARK    2  A    between atoms: C_10  and  CA_12 
REMARK    3  A    between atoms: CA_12  and  C_14 
ROOT
ATOM      1  CA  UNL d   1      76.624  69.310  88.950  0.00  0.00     0.114 C 
ATOM      2  N   UNL d   1      75.990  69.438  90.144  0.00  0.00    -0.279 N 
ATOM      3  C   UNL d   1      74.936  69.935  90.810  0.00  0.00     0.278 C 
ATOM      4  O   UNL d   1      73.855  70.408  90.575  0.00  0.00    -0.266 OA
ATOM      5  CA  UNL d   1      75.731  69.770  92.049  0.00  0.00     0.149 C 
ATOM      6  N   UNL d   1      75.234  69.531  93.274  0.00  0.00    -0.204 NA
ATOM      7  C   UNL d   1      75.843  68.608  94.025  0.00  0.00     0.292 C 
ATOM      8  O   UNL d   1      76.496  67.632  93.657  0.00  0.00    -0.264 OA
ATOM      9  C   UNL d   1      76.675  69.077  91.249  0.00  0.00     0.182 C 
ATOM     10  S   UNL d   1      78.352  69.075  91.019  0.00  0.00    -0.108 SA
ATOM     11  C   UNL d   1      78.040  68.904  89.058  0.00  0.00     0.081 C 
ATOM     12  C   UNL d   1      78.349  67.393  88.768  0.00  0.00     0.017 C 
ATOM     13  C   UNL d   1      79.126  69.859  88.452  0.00  0.00     0.017 C 
ENDROOT
BRANCH   7  14
ATOM     14  CA  UNL d   1      75.620  68.829  95.503  0.00  0.00     0.128 C 
ATOM     15  N   UNL d   1      75.106  70.088  95.985  0.00  0.00    -0.096 NA
BRANCH  14  16
ATOM     16  C   UNL d   1      75.869  67.768  96.502  0.00  0.00     0.018 A 
ATOM     17  C   UNL d   1      77.113  67.657  97.132  0.00  0.00     0.001 A 
ATOM     18  C   UNL d   1      77.362  66.651  98.065  0.00  0.00     0.000 A 
ATOM     19  C   UNL d   1      76.365  65.734  98.380  0.00  0.00     0.000 A 
ATOM     20  C   UNL d   1      75.124  65.822  97.759  0.00  0.00     0.000 A 
ATOM     21  C   UNL d   1      74.886  66.829  96.826  0.00  0.00     0.001 A 
ENDBRANCH  14  16
ENDBRANCH   7  14
BRANCH   1  22
ATOM     22  C   UNL d   1      76.176  69.748  87.619  0.00  0.00     0.224 C 
ATOM     23  O   UNL d   1      75.885  68.820  86.814  0.00  0.00    -0.643 OA
ATOM     24  OXT UNL d   1      76.148  70.990  87.415  0.00  0.00    -0.643 OA
ENDBRANCH   1  22
TORSDOF 3
ENDMDL
MODEL 11
REMARK VINA RESULT:      -6.4      9.732     11.579
REMARK  3 active torsions:
REMARK  status: ('A' for Active; 'I' for Inactive)
REMARK    1  A    between atoms: CA_4  and  C_2 
REMARK       I    between atoms: N_9  and  C_10 
REMARK    2  A    between atoms: C_10  and  CA_12 
REMARK    3  A    between atoms: CA_12  and  C_14 
ROOT
ATOM      1  CA  UNL d   1      76.201  81.094  93.290  0.00  0.00     0.114 C 
ATOM      2  N   UNL d   1      77.307  80.380  93.623  0.00  0.00    -0.279 N 
ATOM      3  C   UNL d   1      77.973  79.219  93.511  0.00  0.00     0.278 C 
ATOM      4  O   UNL d   1      77.954  78.225  92.835  0.00  0.00    -0.266 OA
ATOM      5  CA  UNL d   1      78.730  79.620  94.720  0.00  0.00     0.149 C 
ATOM      6  N   UNL d   1      79.993  79.264  95.008  0.00  0.00    -0.204 NA
ATOM      7  C   UNL d   1      80.814  80.207  95.478  0.00  0.00     0.292 C 
ATOM      8  O   UNL d   1      80.771  81.423  95.289  0.00  0.00    -0.264 OA
ATOM      9  C   UNL d   1      78.098  80.883  94.594  0.00  0.00     0.182 C 
ATOM     10  S   UNL d   1      77.296  81.982  95.600  0.00  0.00    -0.108 SA
ATOM     11  C   UNL d   1      75.961  82.272  94.148  0.00  0.00     0.081 C 
ATOM     12  C   UNL d   1      76.373  83.661  93.543  0.00  0.00     0.017 C 
ATOM     13  C   UNL d   1      74.607  82.346  94.935  0.00  0.00     0.017 C 
ENDROOT
BRANCH   7  14
ATOM     14  CA  UNL d   1      81.945  79.631  96.299  0.00  0.00     0.128 C 
ATOM     15  N   UNL d   1      81.665  78.812  97.453  0.00  0.00    -0.096 NA
BRANCH  14  16
ATOM     16  C   UNL d   1      83.363  79.836  95.937  0.00  0.00     0.018 A 
ATOM     17  C   UNL d   1      84.018  81.028  96.264  0.00  0.00     0.001 A 
ATOM     18  C   UNL d   1      85.352  81.237  95.914  0.00  0.00     0.000 A 
ATOM     19  C   UNL d   1      86.052  80.253  95.225  0.00  0.00     0.000 A 
ATOM     20  C   UNL d   1      85.416  79.064  94.882  0.00  0.00     0.000 A 
ATOM     21  C   UNL d   1      84.082  78.866  95.234  0.00  0.00     0.001 A 
ENDBRANCH  14  16
ENDBRANCH   7  14
BRANCH   1  22
ATOM     22  C   UNL d   1      75.106  80.724  92.379  0.00  0.00     0.224 C 
ATOM     23  O   UNL d   1      74.817  81.585  91.503  0.00  0.00    -0.643 OA
ATOM     24  OXT UNL d   1      74.563  79.605  92.578  0.00  0.00    -0.643 OA
ENDBRANCH   1  22
TORSDOF 3
ENDMDL
MODEL 12
REMARK VINA RESULT:      -6.3      4.015      6.208
REMARK  3 active torsions:
REMARK  status: ('A' for Active; 'I' for Inactive)
REMARK    1  A    between atoms: CA_4  and  C_2 
REMARK       I    between atoms: N_9  and  C_10 
REMARK    2  A    between atoms: C_10  and  CA_12 
REMARK    3  A    between atoms: CA_12  and  C_14 
ROOT
ATOM      1  CA  UNL d   1      77.096  69.137  88.764  0.00  0.00     0.114 C 
ATOM      2  N   UNL d   1      77.834  68.027  88.507  0.00  0.00    -0.279 N 
ATOM      3  C   UNL d   1      78.174  67.083  87.615  0.00  0.00     0.278 C 
ATOM      4  O   UNL d   1      78.086  66.879  86.433  0.00  0.00    -0.266 OA
ATOM      5  CA  UNL d   1      78.636  66.266  88.762  0.00  0.00     0.149 C 
ATOM      6  N   UNL d   1      79.626  65.359  88.730  0.00  0.00    -0.204 NA
ATOM      7  C   UNL d   1      80.499  65.353  89.741  0.00  0.00     0.292 C 
ATOM      8  O   UNL d   1      80.833  66.288  90.469  0.00  0.00    -0.264 OA
ATOM      9  C   UNL d   1      78.422  67.419  89.560  0.00  0.00     0.182 C 
ATOM     10  S   UNL d   1      77.687  67.794  91.037  0.00  0.00    -0.108 SA
ATOM     11  C   UNL d   1      76.943  69.443  90.201  0.00  0.00     0.081 C 
ATOM     12  C   UNL d   1      77.860  70.586  90.764  0.00  0.00     0.017 C 
ATOM     13  C   UNL d   1      75.491  69.502  90.789  0.00  0.00     0.017 C 
ENDROOT
BRANCH   7  14
ATOM     14  CA  UNL d   1      81.158  64.006  89.927  0.00  0.00     0.128 C 
ATOM     15  N   UNL d   1      81.980  63.748  91.085  0.00  0.00    -0.096 NA
BRANCH  14  16
ATOM     16  C   UNL d   1      80.955  62.894  88.975  0.00  0.00     0.018 A 
ATOM     17  C   UNL d   1      79.674  62.392  88.725  0.00  0.00     0.001 A 
ATOM     18  C   UNL d   1      79.474  61.334  87.839  0.00  0.00     0.000 A 
ATOM     19  C   UNL d   1      80.560  60.758  87.188  0.00  0.00     0.000 A 
ATOM     20  C   UNL d   1      81.843  61.238  87.429  0.00  0.00     0.000 A 
ATOM     21  C   UNL d   1      82.033  62.294  88.318  0.00  0.00     0.001 A 
ENDBRANCH  14  16
ENDBRANCH   7  14
BRANCH   1  22
ATOM     22  C   UNL d   1      76.246  69.910  87.844  0.00  0.00     0.224 C 
ATOM     23  O   UNL d   1      75.388  69.238  87.208  0.00  0.00    -0.643 OA
ATOM     24  OXT UNL d   1      76.474  71.146  87.772  0.00  0.00    -0.643 OA
ENDBRANCH   1  22
TORSDOF 3
ENDMDL
MODEL 13
REMARK VINA RESULT:      -6.3     21.929     23.235
REMARK  3 active torsions:
REMARK  status: ('A' for Active; 'I' for Inactive)
REMARK    1  A    between atoms: CA_4  and  C_2 
REMARK       I    between atoms: N_9  and  C_10 
REMARK    2  A    between atoms: C_10  and  CA_12 
REMARK    3  A    between atoms: CA_12  and  C_14 
ROOT
ATOM      1  CA  UNL d   1      63.032  89.254  92.611  0.00  0.00     0.114 C 
ATOM      2  N   UNL d   1      62.471  88.434  91.684  0.00  0.00    -0.279 N 
ATOM      3  C   UNL d   1      62.453  88.029  90.404  0.00  0.00     0.278 C 
ATOM      4  O   UNL d   1      63.138  88.108  89.419  0.00  0.00    -0.266 OA
ATOM      5  CA  UNL d   1      61.094  87.500  90.666  0.00  0.00     0.149 C 
ATOM      6  N   UNL d   1      60.533  86.444  90.053  0.00  0.00    -0.204 NA
ATOM      7  C   UNL d   1      59.866  85.568  90.810  0.00  0.00     0.292 C 
ATOM      8  O   UNL d   1      60.032  85.302  92.000  0.00  0.00    -0.264 OA
ATOM      9  C   UNL d   1      61.334  87.796  92.032  0.00  0.00     0.182 C 
ATOM     10  S   UNL d   1      60.514  88.549  93.307  0.00  0.00    -0.108 SA
ATOM     11  C   UNL d   1      62.226  89.421  93.837  0.00  0.00     0.081 C 
ATOM     12  C   UNL d   1      62.689  88.590  95.086  0.00  0.00     0.017 C 
ATOM     13  C   UNL d   1      61.769  90.870  94.224  0.00  0.00     0.017 C 
ENDROOT
BRANCH   7  14
ATOM     14  CA  UNL d   1      58.821  84.808  90.026  0.00  0.00     0.128 C 
ATOM     15  N   UNL d   1      58.860  83.367  89.962  0.00  0.00    -0.096 NA
BRANCH  14  16
ATOM     16  C   UNL d   1      57.702  85.490  89.342  0.00  0.00     0.018 A 
ATOM     17  C   UNL d   1      56.921  86.434  90.017  0.00  0.00     0.001 A 
ATOM     18  C   UNL d   1      55.855  87.073  89.385  0.00  0.00     0.000 A 
ATOM     19  C   UNL d   1      55.550  86.771  88.062  0.00  0.00     0.000 A 
ATOM     20  C   UNL d   1      56.309  85.829  87.376  0.00  0.00     0.000 A 
ATOM     21  C   UNL d   1      57.371  85.195  88.017  0.00  0.00     0.001 A 
ENDBRANCH  14  16
ENDBRANCH   7  14
BRANCH   1  22
ATOM     22  C   UNL d   1      64.178  90.164  92.460  0.00  0.00     0.224 C 
ATOM     23  O   UNL d   1      65.172  89.909  93.195  0.00  0.00    -0.643 OA
ATOM     24  OXT UNL d   1      64.043  91.107  91.636  0.00  0.00    -0.643 OA
ENDBRANCH   1  22
TORSDOF 3
ENDMDL
MODEL 14
REMARK VINA RESULT:      -6.3     13.606     15.529
REMARK  3 active torsions:
REMARK  status: ('A' for Active; 'I' for Inactive)
REMARK    1  A    between atoms: CA_4  and  C_2 
REMARK       I    between atoms: N_9  and  C_10 
REMARK    2  A    between atoms: C_10  and  CA_12 
REMARK    3  A    between atoms: CA_12  and  C_14 
ROOT
ATOM      1  CA  UNL d   1      62.969  71.109  99.034  0.00  0.00     0.114 C 
ATOM      2  N   UNL d   1      63.992  70.868  99.894  0.00  0.00    -0.279 N 
ATOM      3  C   UNL d   1      64.380  70.321 101.057  0.00  0.00     0.278 C 
ATOM      4  O   UNL d   1      63.961  69.550 101.880  0.00  0.00    -0.266 OA
ATOM      5  CA  UNL d   1      65.575  71.194 100.988  0.00  0.00     0.149 C 
ATOM      6  N   UNL d   1      66.783  70.912 101.503  0.00  0.00    -0.204 NA
ATOM      7  C   UNL d   1      67.857  71.178 100.754  0.00  0.00     0.292 C 
ATOM      8  O   UNL d   1      67.943  71.223  99.527  0.00  0.00    -0.264 OA
ATOM      9  C   UNL d   1      65.149  71.530  99.678  0.00  0.00     0.182 C 
ATOM     10  S   UNL d   1      64.948  72.933  98.753  0.00  0.00    -0.108 SA
ATOM     11  C   UNL d   1      63.245  72.174  98.049  0.00  0.00     0.081 C 
ATOM     12  C   UNL d   1      63.626  71.694  96.604  0.00  0.00     0.017 C 
ATOM     13  C   UNL d   1      62.294  73.421  98.030  0.00  0.00     0.017 C 
ENDROOT
BRANCH   7  14
ATOM     14  CA  UNL d   1      69.100  71.396 101.586  0.00  0.00     0.128 C 
ATOM     15  N   UNL d   1      70.316  70.680 101.283  0.00  0.00    -0.096 NA
BRANCH  14  16
ATOM     16  C   UNL d   1      69.142  72.369 102.697  0.00  0.00     0.018 A 
ATOM     17  C   UNL d   1      69.295  73.736 102.445  0.00  0.00     0.001 A 
ATOM     18  C   UNL d   1      69.350  74.661 103.487  0.00  0.00     0.000 A 
ATOM     19  C   UNL d   1      69.254  74.227 104.805  0.00  0.00     0.000 A 
ATOM     20  C   UNL d   1      69.110  72.872 105.078  0.00  0.00     0.000 A 
ATOM     21  C   UNL d   1      69.059  71.955 104.030  0.00  0.00     0.001 A 
ENDBRANCH  14  16
ENDBRANCH   7  14
BRANCH   1  22
ATOM     22  C   UNL d   1      61.576  70.641  99.109  0.00  0.00     0.224 C 
ATOM     23  O   UNL d   1      60.925  71.036 100.115  0.00  0.00    -0.643 OA
ATOM     24  OXT UNL d   1      61.186  69.885  98.180  0.00  0.00    -0.643 OA
ENDBRANCH   1  22
TORSDOF 3
ENDMDL
MODEL 15
REMARK VINA RESULT:      -6.2      8.747     11.834
REMARK  3 active torsions:
REMARK  status: ('A' for Active; 'I' for Inactive)
REMARK    1  A    between atoms: CA_4  and  C_2 
REMARK       I    between atoms: N_9  and  C_10 
REMARK    2  A    between atoms: C_10  and  CA_12 
REMARK    3  A    between atoms: CA_12  and  C_14 
ROOT
ATOM      1  CA  UNL d   1      76.545  78.860  93.512  0.00  0.00     0.114 C 
ATOM      2  N   UNL d   1      77.329  79.814  94.078  0.00  0.00    -0.279 N 
ATOM      3  C   UNL d   1      77.514  81.121  94.319  0.00  0.00     0.278 C 
ATOM      4  O   UNL d   1      76.889  82.148  94.275  0.00  0.00    -0.266 OA
ATOM      5  CA  UNL d   1      78.938  80.801  94.571  0.00  0.00     0.149 C 
ATOM      6  N   UNL d   1      79.756  81.467  95.403  0.00  0.00    -0.204 NA
ATOM      7  C   UNL d   1      80.555  80.748  96.198  0.00  0.00     0.292 C 
ATOM      8  O   UNL d   1      80.381  79.609  96.629  0.00  0.00    -0.264 OA
ATOM      9  C   UNL d   1      78.557  79.437  94.493  0.00  0.00     0.182 C 
ATOM     10  S   UNL d   1      79.111  78.029  93.734  0.00  0.00    -0.108 SA
ATOM     11  C   UNL d   1      77.219  77.560  93.318  0.00  0.00     0.081 C 
ATOM     12  C   UNL d   1      76.878  76.444  94.368  0.00  0.00     0.017 C 
ATOM     13  C   UNL d   1      77.317  76.994  91.860  0.00  0.00     0.017 C 
ENDROOT
BRANCH   7  14
ATOM     14  CA  UNL d   1      81.788  81.513  96.619  0.00  0.00     0.128 C 
ATOM     15  N   UNL d   1      81.721  82.472  97.695  0.00  0.00    -0.096 NA
BRANCH  14  16
ATOM     16  C   UNL d   1      83.107  81.284  95.993  0.00  0.00     0.018 A 
ATOM     17  C   UNL d   1      83.206  80.667  94.741  0.00  0.00     0.001 A 
ATOM     18  C   UNL d   1      84.446  80.433  94.147  0.00  0.00     0.000 A 
ATOM     19  C   UNL d   1      85.612  80.812  94.804  0.00  0.00     0.000 A 
ATOM     20  C   UNL d   1      85.536  81.419  96.053  0.00  0.00     0.000 A 
ATOM     21  C   UNL d   1      84.292  81.646  96.638  0.00  0.00     0.001 A 
ENDBRANCH  14  16
ENDBRANCH   7  14
BRANCH   1  22
ATOM     22  C   UNL d   1      75.237  79.015  92.857  0.00  0.00     0.224 C 
ATOM     23  O   UNL d   1      75.195  79.865  91.925  0.00  0.00    -0.643 OA
ATOM     24  OXT UNL d   1      74.297  78.304  93.302  0.00  0.00    -0.643 OA
ENDBRANCH   1  22
TORSDOF 3
ENDMDL
MODEL 16
REMARK VINA RESULT:      -6.1     20.644     22.927
REMARK  3 active torsions:
REMARK  status: ('A' for Active; 'I' for Inactive)
REMARK    1  A    between atoms: CA_4  and  C_2 
REMARK       I    between atoms: N_9  and  C_10 
REMARK    2  A    between atoms: C_10  and  CA_12 
REMARK    3  A    between atoms: CA_12  and  C_14 
ROOT
ATOM      1  CA  UNL d   1      56.625  78.447  93.351  0.00  0.00     0.114 C 
ATOM      2  N   UNL d   1      56.519  78.624  92.008  0.00  0.00    -0.279 N 
ATOM      3  C   UNL d   1      56.770  78.131  90.785  0.00  0.00     0.278 C 
ATOM      4  O   UNL d   1      57.096  77.091  90.276  0.00  0.00    -0.266 OA
ATOM      5  CA  UNL d   1      56.589  79.509  90.270  0.00  0.00     0.149 C 
ATOM      6  N   UNL d   1      56.140  79.836  89.047  0.00  0.00    -0.204 NA
ATOM      7  C   UNL d   1      55.243  80.822  88.957  0.00  0.00     0.292 C 
ATOM      8  O   UNL d   1      54.426  81.193  89.799  0.00  0.00    -0.264 OA
ATOM      9  C   UNL d   1      56.144  79.846  91.574  0.00  0.00     0.182 C 
ATOM     10  S   UNL d   1      56.425  81.069  92.710  0.00  0.00    -0.108 SA
ATOM     11  C   UNL d   1      56.432  79.680  94.140  0.00  0.00     0.081 C 
ATOM     12  C   UNL d   1      55.028  79.849  94.822  0.00  0.00     0.017 C 
ATOM     13  C   UNL d   1      57.604  80.149  95.070  0.00  0.00     0.017 C 
ENDROOT
BRANCH   7  14
ATOM     14  CA  UNL d   1      55.258  81.493  87.603  0.00  0.00     0.128 C 
ATOM     15  N   UNL d   1      54.929  80.745  86.413  0.00  0.00    -0.096 NA
BRANCH  14  16
ATOM     16  C   UNL d   1      55.557  82.931  87.442  0.00  0.00     0.018 A 
ATOM     17  C   UNL d   1      56.832  83.432  87.725  0.00  0.00     0.001 A 
ATOM     18  C   UNL d   1      57.122  84.789  87.591  0.00  0.00     0.000 A 
ATOM     19  C   UNL d   1      56.131  85.671  87.171  0.00  0.00     0.000 A 
ATOM     20  C   UNL d   1      54.855  85.195  86.892  0.00  0.00     0.000 A 
ATOM     21  C   UNL d   1      54.576  83.838  87.032  0.00  0.00     0.001 A 
ENDBRANCH  14  16
ENDBRANCH   7  14
BRANCH   1  22
ATOM     22  C   UNL d   1      57.138  77.281  94.087  0.00  0.00     0.224 C 
ATOM     23  O   UNL d   1      56.338  76.776  94.923  0.00  0.00    -0.643 OA
ATOM     24  OXT UNL d   1      58.316  76.922  93.824  0.00  0.00    -0.643 OA
ENDBRANCH   1  22
TORSDOF 3
ENDMDL
MODEL 17
REMARK VINA RESULT:      -6.1     14.000     19.117
REMARK  3 active torsions:
REMARK  status: ('A' for Active; 'I' for Inactive)
REMARK    1  A    between atoms: CA_4  and  C_2 
REMARK       I    between atoms: N_9  and  C_10 
REMARK    2  A    between atoms: C_10  and  CA_12 
REMARK    3  A    between atoms: CA_12  and  C_14 
ROOT
ATOM      1  CA  UNL d   1      70.410  83.971  92.874  0.00  0.00     0.114 C 
ATOM      2  N   UNL d   1      69.622  85.073  92.773  0.00  0.00    -0.279 N 
ATOM      3  C   UNL d   1      69.518  86.348  92.365  0.00  0.00     0.278 C 
ATOM      4  O   UNL d   1      70.105  87.125  91.660  0.00  0.00    -0.266 OA
ATOM      5  CA  UNL d   1      68.365  86.474  93.287  0.00  0.00     0.149 C 
ATOM      6  N   UNL d   1      67.313  87.293  93.120  0.00  0.00    -0.204 NA
ATOM      7  C   UNL d   1      66.095  86.800  93.365  0.00  0.00     0.292 C 
ATOM      8  O   UNL d   1      65.713  85.632  93.292  0.00  0.00    -0.264 OA
ATOM      9  C   UNL d   1      68.465  85.071  93.468  0.00  0.00     0.182 C 
ATOM     10  S   UNL d   1      68.469  83.977  94.759  0.00  0.00    -0.108 SA
ATOM     11  C   UNL d   1      69.928  82.971  93.848  0.00  0.00     0.081 C 
ATOM     12  C   UNL d   1      69.192  81.722  93.247  0.00  0.00     0.017 C 
ATOM     13  C   UNL d   1      70.876  82.587  95.036  0.00  0.00     0.017 C 
ENDROOT
BRANCH   7  14
ATOM     14  CA  UNL d   1      65.099  87.877  93.728  0.00  0.00     0.128 C 
ATOM     15  N   UNL d   1      64.565  87.958  95.065  0.00  0.00    -0.096 NA
BRANCH  14  16
ATOM     16  C   UNL d   1      64.671  88.909  92.760  0.00  0.00     0.018 A 
ATOM     17  C   UNL d   1      64.605  90.255  93.132  0.00  0.00     0.001 A 
ATOM     18  C   UNL d   1      64.189  91.235  92.231  0.00  0.00     0.000 A 
ATOM     19  C   UNL d   1      63.827  90.878  90.937  0.00  0.00     0.000 A 
ATOM     20  C   UNL d   1      63.878  89.543  90.548  0.00  0.00     0.000 A 
ATOM     21  C   UNL d   1      64.292  88.572  91.457  0.00  0.00     0.001 A 
ENDBRANCH  14  16
ENDBRANCH   7  14
BRANCH   1  22
ATOM     22  C   UNL d   1      71.766  83.758  92.345  0.00  0.00     0.224 C 
ATOM     23  O   UNL d   1      72.692  84.331  92.984  0.00  0.00    -0.643 OA
ATOM     24  OXT UNL d   1      71.861  83.050  91.308  0.00  0.00    -0.643 OA
ENDBRANCH   1  22
TORSDOF 3
ENDMDL
MODEL 18
REMARK VINA RESULT:      -6.0     21.156     22.874
REMARK  3 active torsions:
REMARK  status: ('A' for Active; 'I' for Inactive)
REMARK    1  A    between atoms: CA_4  and  C_2 
REMARK       I    between atoms: N_9  and  C_10 
REMARK    2  A    between atoms: C_10  and  CA_12 
REMARK    3  A    between atoms: CA_12  and  C_14 
ROOT
ATOM      1  CA  UNL d   1      62.875  90.050  93.825  0.00  0.00     0.114 C 
ATOM      2  N   UNL d   1      61.744  89.334  93.592  0.00  0.00    -0.279 N 
ATOM      3  C   UNL d   1      60.627  88.796  94.106  0.00  0.00     0.278 C 
ATOM      4  O   UNL d   1      59.963  88.868  95.107  0.00  0.00    -0.266 OA
ATOM      5  CA  UNL d   1      60.584  87.920  92.912  0.00  0.00     0.149 C 
ATOM      6  N   UNL d   1      59.474  87.417  92.348  0.00  0.00    -0.204 NA
ATOM      7  C   UNL d   1      59.383  87.448  91.015  0.00  0.00     0.292 C 
ATOM      8  O   UNL d   1      59.913  88.234  90.230  0.00  0.00    -0.264 OA
ATOM      9  C   UNL d   1      61.642  88.712  92.398  0.00  0.00     0.182 C 
ATOM     10  S   UNL d   1      63.140  88.460  91.652  0.00  0.00    -0.108 SA
ATOM     11  C   UNL d   1      63.895  89.932  92.764  0.00  0.00     0.081 C 
ATOM     12  C   UNL d   1      63.990  91.136  91.762  0.00  0.00     0.017 C 
ATOM     13  C   UNL d   1      65.306  89.375  93.160  0.00  0.00     0.017 C 
ENDROOT
BRANCH   7  14
ATOM     14  CA  UNL d   1      58.457  86.382  90.475  0.00  0.00     0.128 C 
ATOM     15  N   UNL d   1      57.131  86.727  90.024  0.00  0.00    -0.096 NA
BRANCH  14  16
ATOM     16  C   UNL d   1      58.878  84.972  90.340  0.00  0.00     0.018 A 
ATOM     17  C   UNL d   1      57.935  83.964  90.109  0.00  0.00     0.001 A 
ATOM     18  C   UNL d   1      58.319  82.629  89.995  0.00  0.00     0.000 A 
ATOM     19  C   UNL d   1      59.661  82.280  90.113  0.00  0.00     0.000 A 
ATOM     20  C   UNL d   1      60.613  83.266  90.350  0.00  0.00     0.000 A 
ATOM     21  C   UNL d   1      60.218  84.597  90.466  0.00  0.00     0.001 A 
ENDBRANCH  14  16
ENDBRANCH   7  14
BRANCH   1  22
ATOM     22  C   UNL d   1      63.307  90.706  95.069  0.00  0.00     0.224 C 
ATOM     23  O   UNL d   1      63.381  91.965  95.019  0.00  0.00    -0.643 OA
ATOM     24  OXT UNL d   1      63.576  89.950  96.040  0.00  0.00    -0.643 OA
ENDBRANCH   1  22
TORSDOF 3
ENDMDL
MODEL 19
REMARK VINA RESULT:      -6.0      3.977      6.285
REMARK  3 active torsions:
REMARK  status: ('A' for Active; 'I' for Inactive)
REMARK    1  A    between atoms: CA_4  and  C_2 
REMARK       I    between atoms: N_9  and  C_10 
REMARK    2  A    between atoms: C_10  and  CA_12 
REMARK    3  A    between atoms: CA_12  and  C_14 
ROOT
ATOM      1  CA  UNL d   1      77.130  69.263  88.734  0.00  0.00     0.114 C 
ATOM      2  N   UNL d   1      77.848  68.139  88.477  0.00  0.00    -0.279 N 
ATOM      3  C   UNL d   1      78.192  67.205  87.576  0.00  0.00     0.278 C 
ATOM      4  O   UNL d   1      78.137  67.028  86.388  0.00  0.00    -0.266 OA
ATOM      5  CA  UNL d   1      78.596  66.354  88.720  0.00  0.00     0.149 C 
ATOM      6  N   UNL d   1      79.563  65.422  88.700  0.00  0.00    -0.204 NA
ATOM      7  C   UNL d   1      80.403  65.373  89.738  0.00  0.00     0.292 C 
ATOM      8  O   UNL d   1      80.737  66.284  90.496  0.00  0.00    -0.264 OA
ATOM      9  C   UNL d   1      78.386  67.495  89.534  0.00  0.00     0.182 C 
ATOM     10  S   UNL d   1      77.613  67.859  90.996  0.00  0.00    -0.108 SA
ATOM     11  C   UNL d   1      76.938  69.543  90.171  0.00  0.00     0.081 C 
ATOM     12  C   UNL d   1      77.865  70.650  90.787  0.00  0.00     0.017 C 
ATOM     13  C   UNL d   1      75.470  69.628  90.714  0.00  0.00     0.017 C 
ENDROOT
BRANCH   7  14
ATOM     14  CA  UNL d   1      81.021  64.006  89.917  0.00  0.00     0.128 C 
ATOM     15  N   UNL d   1      82.120  63.586  89.082  0.00  0.00    -0.096 NA
BRANCH  14  16
ATOM     16  C   UNL d   1      80.569  63.070  90.967  0.00  0.00     0.018 A 
ATOM     17  C   UNL d   1      79.280  63.166  91.503  0.00  0.00     0.001 A 
ATOM     18  C   UNL d   1      78.847  62.298  92.504  0.00  0.00     0.000 A 
ATOM     19  C   UNL d   1      79.706  61.317  92.990  0.00  0.00     0.000 A 
ATOM     20  C   UNL d   1      80.994  61.210  92.477  0.00  0.00     0.000 A 
ATOM     21  C   UNL d   1      81.417  62.084  91.478  0.00  0.00     0.001 A 
ENDBRANCH  14  16
ENDBRANCH   7  14
BRANCH   1  22
ATOM     22  C   UNL d   1      76.330  70.076  87.804  0.00  0.00     0.224 C 
ATOM     23  O   UNL d   1      76.562  71.317  87.833  0.00  0.00    -0.643 OA
ATOM     24  OXT UNL d   1      75.491  69.459  87.096  0.00  0.00    -0.643 OA
ENDBRANCH   1  22
TORSDOF 3
ENDMDL
MODEL 20
REMARK VINA RESULT:      -6.0      5.192      7.538
REMARK  3 active torsions:
REMARK  status: ('A' for Active; 'I' for Inactive)
REMARK    1  A    between atoms: CA_4  and  C_2 
REMARK       I    between atoms: N_9  and  C_10 
REMARK    2  A    between atoms: C_10  and  CA_12 
REMARK    3  A    between atoms: CA_12  and  C_14 
ROOT
ATOM      1  CA  UNL d   1      77.131  68.894  89.895  0.00  0.00     0.114 C 
ATOM      2  N   UNL d   1      76.369  68.988  91.015  0.00  0.00    -0.279 N 
ATOM      3  C   UNL d   1      75.217  69.411  91.560  0.00  0.00     0.278 C 
ATOM      4  O   UNL d   1      74.134  69.797  91.206  0.00  0.00    -0.266 OA
ATOM      5  CA  UNL d   1      75.890  69.321  92.877  0.00  0.00     0.149 C 
ATOM      6  N   UNL d   1      75.288  69.060  94.049  0.00  0.00    -0.204 NA
ATOM      7  C   UNL d   1      75.883  68.195  94.876  0.00  0.00     0.292 C 
ATOM      8  O   UNL d   1      76.642  67.267  94.597  0.00  0.00    -0.264 OA
ATOM      9  C   UNL d   1      76.961  68.693  92.192  0.00  0.00     0.182 C 
ATOM     10  S   UNL d   1      78.648  68.817  92.134  0.00  0.00    -0.108 SA
ATOM     11  C   UNL d   1      78.554  68.600  90.155  0.00  0.00     0.081 C 
ATOM     12  C   UNL d   1      79.004  67.113  89.928  0.00  0.00     0.017 C 
ATOM     13  C   UNL d   1      79.623  69.627  89.645  0.00  0.00     0.017 C 
ENDROOT
BRANCH   7  14
ATOM     14  CA  UNL d   1      75.493  68.416  96.319  0.00  0.00     0.128 C 
ATOM     15  N   UNL d   1      74.178  68.047  96.785  0.00  0.00    -0.096 NA
BRANCH  14  16
ATOM     16  C   UNL d   1      76.439  68.964  97.314  0.00  0.00     0.018 A 
ATOM     17  C   UNL d   1      76.315  68.644  98.670  0.00  0.00     0.001 A 
ATOM     18  C   UNL d   1      77.193  69.167  99.618  0.00  0.00     0.000 A 
ATOM     19  C   UNL d   1      78.212  70.026  99.221  0.00  0.00     0.000 A 
ATOM     20  C   UNL d   1      78.348  70.364  97.879  0.00  0.00     0.000 A 
ATOM     21  C   UNL d   1      77.463  69.838  96.939  0.00  0.00     0.001 A 
ENDBRANCH  14  16
ENDBRANCH   7  14
BRANCH   1  22
ATOM     22  C   UNL d   1      76.792  69.281  88.517  0.00  0.00     0.224 C 
ATOM     23  O   UNL d   1      76.485  70.495  88.355  0.00  0.00    -0.643 OA
ATOM     24  OXT UNL d   1      76.823  68.367  87.652  0.00  0.00    -0.643 OA
ENDBRANCH   1  22
TORSDOF 3
ENDMDL
