MODEL 1
REMARK VINA RESULT:      -7.8      0.000      0.000
REMARK  9 active torsions:
REMARK  status: ('A' for Active; 'I' for Inactive)
REMARK    1  A    between atoms: C_1  and  C_2 
REMARK    2  A    between atoms: C_1  and  O_7 
REMARK    3  A    between atoms: O_7  and  N_8 
REMARK    4  A    between atoms: C_9  and  C_10 
REMARK    5  A    between atoms: C_9  and  C_16 
REMARK       I    between atoms: C_16  and  N_18 
REMARK    6  A    between atoms: CA_19  and  N_18 
REMARK    7  A    between atoms: C_26  and  C_31 
REMARK    8  A    between atoms: CA_27  and  C_28 
REMARK    9  A    between atoms: C_31  and  N_32 
ROOT
ATOM      1  CA  UNL d   1      74.352  74.717  91.122  0.00  0.00     0.230 C 
ATOM      2  C   UNL d   1      73.666  73.436  91.400  0.00  0.00     0.270 C 
ATOM      3  O   UNL d   1      72.640  73.135  91.954  0.00  0.00    -0.269 OA
ATOM      4  N   UNL d   1      74.682  72.783  90.789  0.00  0.00    -0.266 N 
ATOM      5  C   UNL d   1      75.421  73.921  90.647  0.00  0.00     0.105 A 
ATOM      6  S   UNL d   1      77.017  74.116  90.130  0.00  0.00    -0.070 SA
ATOM      7  C   UNL d   1      77.128  72.464  89.865  0.00  0.00     0.047 A 
ATOM      8  C   UNL d   1      76.330  71.302  89.954  0.00  0.00     0.080 A 
ATOM      9  CA  UNL d   1      75.087  71.512  90.449  0.00  0.00     0.140 A 
ENDROOT
BRANCH   1  10
ATOM     10  N   UNL d   1      74.501  75.791  91.917  0.00  0.00    -0.218 NA
ATOM     11  C   UNL d   1      74.641  76.926  91.205  0.00  0.00     0.297 C 
ATOM     12  O   UNL d   1      74.239  77.202  90.076  0.00  0.00    -0.264 OA
BRANCH  11  13
ATOM     13  C   UNL d   1      75.389  78.017  91.969  0.00  0.00     0.183 C 
ATOM     14  N   UNL d   1      74.853  79.160  92.318  0.00  0.00    -0.124 NA
BRANCH  14  15
ATOM     15  O   UNL d   1      73.478  79.254  91.952  0.00  0.00    -0.231 OA
BRANCH  15  16
ATOM     16  C   UNL d   1      72.757  80.320  92.658  0.00  0.00     0.199 C 
ATOM     17  C   UNL d   1      72.804  80.083  94.255  0.00  0.00     0.044 C 
ATOM     18  C   UNL d   1      71.196  80.184  92.268  0.00  0.00     0.044 C 
BRANCH  16  19
ATOM     19  C   UNL d   1      73.346  81.806  92.149  0.00  0.00     0.213 C 
ATOM     20  O   UNL d   1      73.480  82.722  93.036  0.00  0.00    -0.646 OA
ATOM     21  O   UNL d   1      73.689  81.927  90.918  0.00  0.00    -0.646 OA
ENDBRANCH  16  19
ENDBRANCH  15  16
ENDBRANCH  14  15
BRANCH  13  22
ATOM     22  C   UNL d   1      76.761  77.789  92.430  0.00  0.00     0.114 A 
ATOM     23  N   UNL d   1      77.704  77.046  91.708  0.00  0.00    -0.223 NA
ATOM     24  C   UNL d   1      78.818  76.966  92.391  0.00  0.00     0.181 A 
ATOM     25  S   UNL d   1      78.844  77.740  93.912  0.00  0.00    -0.052 SA
ATOM     26  N   UNL d   1      79.952  76.254  91.895  0.00  0.00    -0.072 NA
ATOM     27  C   UNL d   1      77.237  78.225  93.649  0.00  0.00     0.059 A 
ENDBRANCH  13  22
ENDBRANCH  11  13
ENDBRANCH   1  10
BRANCH   9  28
ATOM     28  C   UNL d   1      74.218  70.247  90.475  0.00  0.00     0.229 C 
ATOM     29  O   UNL d   1      74.357  69.516  91.498  0.00  0.00    -0.643 OA
ATOM     30  OXT UNL d   1      73.211  70.278  89.695  0.00  0.00    -0.643 OA
ENDBRANCH   9  28
BRANCH   8  31
ATOM     31  C   UNL d   1      76.771  70.047  89.487  0.00  0.00    -0.018 C 
BRANCH  31  32
ATOM     32  N   UNL d   1      77.219  68.832  88.914  0.00  0.00    -0.270 N 
ATOM     33  C   UNL d   1      77.608  67.853  89.740  0.00  0.00     0.088 A 
ATOM     34  C   UNL d   1      78.102  66.666  89.211  0.00  0.00     0.020 A 
ATOM     35  C   UNL d   1      78.186  66.529  87.832  0.00  0.00     0.003 A 
ATOM     36  C   UNL d   1      77.777  67.568  87.005  0.00  0.00     0.020 A 
ATOM     37  C   UNL d   1      77.287  68.742  87.576  0.00  0.00     0.088 A 
ENDBRANCH  31  32
ENDBRANCH   8  31
TORSDOF 9
ENDMDL
MODEL 2
REMARK VINA RESULT:      -7.8      3.996      6.404
REMARK  9 active torsions:
REMARK  status: ('A' for Active; 'I' for Inactive)
REMARK    1  A    between atoms: C_1  and  C_2 
REMARK    2  A    between atoms: C_1  and  O_7 
REMARK    3  A    between atoms: O_7  and  N_8 
REMARK    4  A    between atoms: C_9  and  C_10 
REMARK    5  A    between atoms: C_9  and  C_16 
REMARK       I    between atoms: C_16  and  N_18 
REMARK    6  A    between atoms: CA_19  and  N_18 
REMARK    7  A    between atoms: C_26  and  C_31 
REMARK    8  A    between atoms: CA_27  and  C_28 
REMARK    9  A    between atoms: C_31  and  N_32 
ROOT
ATOM      1  CA  UNL d   1      76.916  70.553  89.438  0.00  0.00     0.230 C 
ATOM      2  C   UNL d   1      76.502  69.500  88.484  0.00  0.00     0.270 C 
ATOM      3  O   UNL d   1      75.650  69.420  87.637  0.00  0.00    -0.269 OA
ATOM      4  N   UNL d   1      77.467  68.695  88.988  0.00  0.00    -0.266 N 
ATOM      5  C   UNL d   1      77.780  69.574  89.983  0.00  0.00     0.105 A 
ATOM      6  S   UNL d   1      78.801  69.381  91.314  0.00  0.00    -0.070 SA
ATOM      7  C   UNL d   1      79.194  67.841  90.784  0.00  0.00     0.047 A 
ATOM      8  C   UNL d   1      78.912  66.964  89.711  0.00  0.00     0.080 A 
ATOM      9  CA  UNL d   1      78.008  67.439  88.823  0.00  0.00     0.140 A 
ENDROOT
BRANCH   1  10
ATOM     10  N   UNL d   1      76.152  71.383  90.170  0.00  0.00    -0.218 NA
ATOM     11  C   UNL d   1      76.130  72.628  89.657  0.00  0.00     0.297 C 
ATOM     12  O   UNL d   1      76.294  73.004  88.497  0.00  0.00    -0.264 OA
BRANCH  11  13
ATOM     13  C   UNL d   1      75.819  73.696  90.703  0.00  0.00     0.183 C 
ATOM     14  N   UNL d   1      76.724  74.249  91.470  0.00  0.00    -0.124 NA
BRANCH  14  15
ATOM     15  O   UNL d   1      78.042  73.783  91.187  0.00  0.00    -0.231 OA
BRANCH  15  16
ATOM     16  C   UNL d   1      79.027  74.862  91.049  0.00  0.00     0.199 C 
ATOM     17  C   UNL d   1      80.394  74.493  91.827  0.00  0.00     0.044 C 
ATOM     18  C   UNL d   1      78.444  76.149  91.832  0.00  0.00     0.044 C 
BRANCH  16  19
ATOM     19  C   UNL d   1      79.217  75.221  89.422  0.00  0.00     0.213 C 
ATOM     20  O   UNL d   1      79.370  76.455  89.104  0.00  0.00    -0.646 OA
ATOM     21  O   UNL d   1      79.264  74.244  88.592  0.00  0.00    -0.646 OA
ENDBRANCH  16  19
ENDBRANCH  15  16
ENDBRANCH  14  15
BRANCH  13  22
ATOM     22  C   UNL d   1      74.458  74.222  90.840  0.00  0.00     0.114 A 
ATOM     23  N   UNL d   1      74.113  75.550  90.564  0.00  0.00    -0.223 NA
ATOM     24  C   UNL d   1      72.846  75.741  90.830  0.00  0.00     0.181 A 
ATOM     25  S   UNL d   1      71.975  74.397  91.422  0.00  0.00    -0.052 SA
ATOM     26  N   UNL d   1      72.224  77.014  90.649  0.00  0.00    -0.072 NA
ATOM     27  C   UNL d   1      73.400  73.479  91.320  0.00  0.00     0.059 A 
ENDBRANCH  13  22
ENDBRANCH  11  13
ENDBRANCH   1  10
BRANCH   9  28
ATOM     28  C   UNL d   1      77.768  66.498  87.635  0.00  0.00     0.229 C 
ATOM     29  O   UNL d   1      76.826  65.666  87.786  0.00  0.00    -0.643 OA
ATOM     30  OXT UNL d   1      78.252  66.905  86.529  0.00  0.00    -0.643 OA
ENDBRANCH   9  28
BRANCH   8  31
ATOM     31  C   UNL d   1      79.583  65.736  89.546  0.00  0.00    -0.018 C 
BRANCH  31  32
ATOM     32  N   UNL d   1      80.245  64.485  89.490  0.00  0.00    -0.270 N 
ATOM     33  C   UNL d   1      81.510  64.423  89.924  0.00  0.00     0.088 A 
ATOM     34  C   UNL d   1      82.206  63.222  89.836  0.00  0.00     0.020 A 
ATOM     35  C   UNL d   1      81.569  62.115  89.291  0.00  0.00     0.003 A 
ATOM     36  C   UNL d   1      80.257  62.217  88.847  0.00  0.00     0.020 A 
ATOM     37  C   UNL d   1      79.594  63.440  88.953  0.00  0.00     0.088 A 
ENDBRANCH  31  32
ENDBRANCH   8  31
TORSDOF 9
ENDMDL
MODEL 3
REMARK VINA RESULT:      -7.8      2.103      4.271
REMARK  9 active torsions:
REMARK  status: ('A' for Active; 'I' for Inactive)
REMARK    1  A    between atoms: C_1  and  C_2 
REMARK    2  A    between atoms: C_1  and  O_7 
REMARK    3  A    between atoms: O_7  and  N_8 
REMARK    4  A    between atoms: C_9  and  C_10 
REMARK    5  A    between atoms: C_9  and  C_16 
REMARK       I    between atoms: C_16  and  N_18 
REMARK    6  A    between atoms: CA_19  and  N_18 
REMARK    7  A    between atoms: C_26  and  C_31 
REMARK    8  A    between atoms: CA_27  and  C_28 
REMARK    9  A    between atoms: C_31  and  N_32 
ROOT
ATOM      1  CA  UNL d   1      74.471  74.515  90.942  0.00  0.00     0.230 C 
ATOM      2  C   UNL d   1      73.754  73.257  91.249  0.00  0.00     0.270 C 
ATOM      3  O   UNL d   1      72.727  72.991  91.819  0.00  0.00    -0.269 OA
ATOM      4  N   UNL d   1      74.745  72.568  90.636  0.00  0.00    -0.266 N 
ATOM      5  C   UNL d   1      75.512  73.683  90.467  0.00  0.00     0.105 A 
ATOM      6  S   UNL d   1      77.106  73.828  89.928  0.00  0.00    -0.070 SA
ATOM      7  C   UNL d   1      77.170  72.171  89.688  0.00  0.00     0.047 A 
ATOM      8  C   UNL d   1      76.343  71.031  89.804  0.00  0.00     0.080 A 
ATOM      9  CA  UNL d   1      75.112  71.281  90.310  0.00  0.00     0.140 A 
ENDROOT
BRANCH   1  10
ATOM     10  N   UNL d   1      74.657  75.597  91.719  0.00  0.00    -0.218 NA
ATOM     11  C   UNL d   1      74.616  76.738  91.007  0.00  0.00     0.297 C 
ATOM     12  O   UNL d   1      74.040  76.986  89.949  0.00  0.00    -0.264 OA
BRANCH  11  13
ATOM     13  C   UNL d   1      75.389  77.878  91.667  0.00  0.00     0.183 C 
ATOM     14  N   UNL d   1      76.684  77.865  91.859  0.00  0.00    -0.124 NA
BRANCH  14  15
ATOM     15  O   UNL d   1      77.303  76.691  91.337  0.00  0.00    -0.231 OA
BRANCH  15  16
ATOM     16  C   UNL d   1      78.491  76.272  92.090  0.00  0.00     0.199 C 
ATOM     17  C   UNL d   1      78.132  75.063  93.100  0.00  0.00     0.044 C 
ATOM     18  C   UNL d   1      78.909  77.500  93.052  0.00  0.00     0.044 C 
BRANCH  16  19
ATOM     19  C   UNL d   1      79.732  75.944  91.011  0.00  0.00     0.213 C 
ATOM     20  O   UNL d   1      79.573  76.322  89.796  0.00  0.00    -0.646 OA
ATOM     21  O   UNL d   1      80.797  75.391  91.468  0.00  0.00    -0.646 OA
ENDBRANCH  16  19
ENDBRANCH  15  16
ENDBRANCH  14  15
BRANCH  13  22
ATOM     22  C   UNL d   1      74.699  79.111  92.055  0.00  0.00     0.114 A 
ATOM     23  N   UNL d   1      73.332  79.170  92.355  0.00  0.00    -0.223 NA
ATOM     24  C   UNL d   1      72.990  80.407  92.611  0.00  0.00     0.181 A 
ATOM     25  S   UNL d   1      74.225  81.581  92.516  0.00  0.00    -0.052 SA
ATOM     26  N   UNL d   1      71.646  80.761  92.940  0.00  0.00    -0.072 NA
ATOM     27  C   UNL d   1      75.313  80.346  92.097  0.00  0.00     0.059 A 
ENDBRANCH  13  22
ENDBRANCH  11  13
ENDBRANCH   1  10
BRANCH   9  28
ATOM     28  C   UNL d   1      74.211  70.040  90.365  0.00  0.00     0.229 C 
ATOM     29  O   UNL d   1      74.252  69.390  91.450  0.00  0.00    -0.643 OA
ATOM     30  OXT UNL d   1      73.268  70.030  89.509  0.00  0.00    -0.643 OA
ENDBRANCH   9  28
BRANCH   8  31
ATOM     31  C   UNL d   1      76.745  69.758  89.351  0.00  0.00    -0.018 C 
BRANCH  31  32
ATOM     32  N   UNL d   1      77.255  68.508  88.923  0.00  0.00    -0.270 N 
ATOM     33  C   UNL d   1      77.618  67.623  89.859  0.00  0.00     0.088 A 
ATOM     34  C   UNL d   1      78.170  66.406  89.474  0.00  0.00     0.020 A 
ATOM     35  C   UNL d   1      78.338  66.143  88.121  0.00  0.00     0.003 A 
ATOM     36  C   UNL d   1      77.954  67.088  87.177  0.00  0.00     0.020 A 
ATOM     37  C   UNL d   1      77.404  68.296  87.605  0.00  0.00     0.088 A 
ENDBRANCH  31  32
ENDBRANCH   8  31
TORSDOF 9
ENDMDL
MODEL 4
REMARK VINA RESULT:      -7.8     13.556     18.909
REMARK  9 active torsions:
REMARK  status: ('A' for Active; 'I' for Inactive)
REMARK    1  A    between atoms: C_1  and  C_2 
REMARK    2  A    between atoms: C_1  and  O_7 
REMARK    3  A    between atoms: O_7  and  N_8 
REMARK    4  A    between atoms: C_9  and  C_10 
REMARK    5  A    between atoms: C_9  and  C_16 
REMARK       I    between atoms: C_16  and  N_18 
REMARK    6  A    between atoms: CA_19  and  N_18 
REMARK    7  A    between atoms: C_26  and  C_31 
REMARK    8  A    between atoms: CA_27  and  C_28 
REMARK    9  A    between atoms: C_31  and  N_32 
ROOT
ATOM      1  CA  UNL d   1      69.169  87.585  99.274  0.00  0.00     0.230 C 
ATOM      2  C   UNL d   1      68.504  88.015 100.525  0.00  0.00     0.270 C 
ATOM      3  O   UNL d   1      67.359  88.062 100.895  0.00  0.00    -0.269 OA
ATOM      4  N   UNL d   1      69.717  88.332 101.035  0.00  0.00    -0.266 N 
ATOM      5  C   UNL d   1      70.356  88.094  99.853  0.00  0.00     0.105 A 
ATOM      6  S   UNL d   1      71.956  88.400  99.408  0.00  0.00    -0.070 SA
ATOM      7  C   UNL d   1      72.272  88.969 100.953  0.00  0.00     0.047 A 
ATOM      8  C   UNL d   1      71.615  89.148 102.191  0.00  0.00     0.080 A 
ATOM      9  CA  UNL d   1      70.301  88.823 102.181  0.00  0.00     0.140 A 
ENDROOT
BRANCH   1  10
ATOM     10  N   UNL d   1      68.796  87.795  97.999  0.00  0.00    -0.218 NA
ATOM     11  C   UNL d   1      68.004  86.808  97.540  0.00  0.00     0.297 C 
ATOM     12  O   UNL d   1      67.254  86.050  98.153  0.00  0.00    -0.264 OA
BRANCH  11  13
ATOM     13  C   UNL d   1      68.053  86.667  96.020  0.00  0.00     0.183 C 
ATOM     14  N   UNL d   1      67.300  87.358  95.200  0.00  0.00    -0.124 NA
BRANCH  14  15
ATOM     15  O   UNL d   1      66.467  88.294  95.880  0.00  0.00    -0.231 OA
BRANCH  15  16
ATOM     16  C   UNL d   1      65.671  89.133  94.975  0.00  0.00     0.199 C 
ATOM     17  C   UNL d   1      64.118  88.687  94.997  0.00  0.00     0.044 C 
ATOM     18  C   UNL d   1      66.166  88.821  93.470  0.00  0.00     0.044 C 
BRANCH  16  19
ATOM     19  C   UNL d   1      65.946  90.745  95.345  0.00  0.00     0.213 C 
ATOM     20  O   UNL d   1      67.120  91.211  95.119  0.00  0.00    -0.646 OA
ATOM     21  O   UNL d   1      64.956  91.442  95.771  0.00  0.00    -0.646 OA
ENDBRANCH  16  19
ENDBRANCH  15  16
ENDBRANCH  14  15
BRANCH  13  22
ATOM     22  C   UNL d   1      69.034  85.780  95.390  0.00  0.00     0.114 A 
ATOM     23  N   UNL d   1      69.436  85.898  94.054  0.00  0.00    -0.223 NA
ATOM     24  C   UNL d   1      70.274  84.937  93.760  0.00  0.00     0.181 A 
ATOM     25  S   UNL d   1      70.647  83.833  95.007  0.00  0.00    -0.052 SA
ATOM     26  N   UNL d   1      70.840  84.808  92.454  0.00  0.00    -0.072 NA
ATOM     27  C   UNL d   1      69.606  84.700  96.032  0.00  0.00     0.059 A 
ENDBRANCH  13  22
ENDBRANCH  11  13
ENDBRANCH   1  10
BRANCH   9  28
ATOM     28  C   UNL d   1      69.627  88.965 103.553  0.00  0.00     0.229 C 
ATOM     29  O   UNL d   1      69.076  90.083 103.772  0.00  0.00    -0.643 OA
ATOM     30  OXT UNL d   1      69.360  87.861 104.130  0.00  0.00    -0.643 OA
ENDBRANCH   9  28
BRANCH   8  31
ATOM     31  C   UNL d   1      72.300  89.554 103.355  0.00  0.00    -0.018 C 
BRANCH  31  32
ATOM     32  N   UNL d   1      72.933  90.061 104.516  0.00  0.00    -0.270 N 
ATOM     33  C   UNL d   1      73.582  91.228 104.420  0.00  0.00     0.088 A 
ATOM     34  C   UNL d   1      74.258  91.728 105.527  0.00  0.00     0.020 A 
ATOM     35  C   UNL d   1      74.248  90.998 106.707  0.00  0.00     0.003 A 
ATOM     36  C   UNL d   1      73.568  89.788 106.770  0.00  0.00     0.020 A 
ATOM     37  C   UNL d   1      72.902  89.320 105.637  0.00  0.00     0.088 A 
ENDBRANCH  31  32
ENDBRANCH   8  31
TORSDOF 9
ENDMDL
MODEL 5
REMARK VINA RESULT:      -7.6      8.555      9.749
REMARK  9 active torsions:
REMARK  status: ('A' for Active; 'I' for Inactive)
REMARK    1  A    between atoms: C_1  and  C_2 
REMARK    2  A    between atoms: C_1  and  O_7 
REMARK    3  A    between atoms: O_7  and  N_8 
REMARK    4  A    between atoms: C_9  and  C_10 
REMARK    5  A    between atoms: C_9  and  C_16 
REMARK       I    between atoms: C_16  and  N_18 
REMARK    6  A    between atoms: CA_19  and  N_18 
REMARK    7  A    between atoms: C_26  and  C_31 
REMARK    8  A    between atoms: CA_27  and  C_28 
REMARK    9  A    between atoms: C_31  and  N_32 
ROOT
ATOM      1  CA  UNL d   1      79.755  76.033  98.712  0.00  0.00     0.230 C 
ATOM      2  C   UNL d   1      80.757  75.001  99.060  0.00  0.00     0.270 C 
ATOM      3  O   UNL d   1      81.907  75.032  99.415  0.00  0.00    -0.269 OA
ATOM      4  N   UNL d   1      79.836  74.046  98.793  0.00  0.00    -0.266 N 
ATOM      5  C   UNL d   1      78.932  74.951  98.318  0.00  0.00     0.105 A 
ATOM      6  S   UNL d   1      77.457  74.697  97.536  0.00  0.00    -0.070 SA
ATOM      7  C   UNL d   1      77.653  73.042  97.713  0.00  0.00     0.047 A 
ATOM      8  C   UNL d   1      78.565  72.118  98.269  0.00  0.00     0.080 A 
ATOM      9  CA  UNL d   1      79.679  72.678  98.798  0.00  0.00     0.140 A 
ENDROOT
BRANCH   1  10
ATOM     10  N   UNL d   1      79.913  77.164  98.002  0.00  0.00    -0.218 NA
ATOM     11  C   UNL d   1      80.379  78.172  98.764  0.00  0.00     0.297 C 
ATOM     12  O   UNL d   1      81.058  78.135  99.789  0.00  0.00    -0.264 OA
BRANCH  11  13
ATOM     13  C   UNL d   1      80.013  79.549  98.214  0.00  0.00     0.183 C 
ATOM     14  N   UNL d   1      80.809  80.269  97.465  0.00  0.00    -0.124 NA
BRANCH  14  15
ATOM     15  O   UNL d   1      82.037  79.605  97.174  0.00  0.00    -0.231 OA
BRANCH  15  16
ATOM     16  C   UNL d   1      82.804  80.239  96.095  0.00  0.00     0.199 C 
ATOM     17  C   UNL d   1      82.223  79.811  94.650  0.00  0.00     0.044 C 
ATOM     18  C   UNL d   1      84.296  79.621  96.138  0.00  0.00     0.044 C 
BRANCH  16  19
ATOM     19  C   UNL d   1      82.863  81.893  96.369  0.00  0.00     0.213 C 
ATOM     20  O   UNL d   1      82.172  82.644  95.593  0.00  0.00    -0.646 OA
ATOM     21  O   UNL d   1      83.542  82.312  97.374  0.00  0.00    -0.646 OA
ENDBRANCH  16  19
ENDBRANCH  15  16
ENDBRANCH  14  15
BRANCH  13  22
ATOM     22  C   UNL d   1      78.678  80.106  98.445  0.00  0.00     0.114 A 
ATOM     23  N   UNL d   1      77.882  79.773  99.549  0.00  0.00    -0.223 NA
ATOM     24  C   UNL d   1      76.726  80.380  99.458  0.00  0.00     0.181 A 
ATOM     25  S   UNL d   1      76.483  81.370  98.089  0.00  0.00    -0.052 SA
ATOM     26  N   UNL d   1      75.710  80.211 100.448  0.00  0.00    -0.072 NA
ATOM     27  C   UNL d   1      78.047  80.960  97.565  0.00  0.00     0.059 A 
ENDBRANCH  13  22
ENDBRANCH  11  13
ENDBRANCH   1  10
BRANCH   9  28
ATOM     28  C   UNL d   1      80.622  71.660  99.453  0.00  0.00     0.229 C 
ATOM     29  O   UNL d   1      81.700  71.441  98.827  0.00  0.00    -0.643 OA
ATOM     30  OXT UNL d   1      80.410  71.461 100.693  0.00  0.00    -0.643 OA
ENDBRANCH   9  28
BRANCH   8  31
ATOM     31  C   UNL d   1      78.292  70.736  98.337  0.00  0.00    -0.018 C 
BRANCH  31  32
ATOM     32  N   UNL d   1      78.059  69.350  98.509  0.00  0.00    -0.270 N 
ATOM     33  C   UNL d   1      79.100  68.574  98.837  0.00  0.00     0.088 A 
ATOM     34  C   UNL d   1      78.917  67.202  98.965  0.00  0.00     0.020 A 
ATOM     35  C   UNL d   1      77.655  66.668  98.740  0.00  0.00     0.003 A 
ATOM     36  C   UNL d   1      76.599  67.504  98.397  0.00  0.00     0.020 A 
ATOM     37  C   UNL d   1      76.824  68.875  98.279  0.00  0.00     0.088 A 
ENDBRANCH  31  32
ENDBRANCH   8  31
TORSDOF 9
ENDMDL
MODEL 6
REMARK VINA RESULT:      -7.5      6.031      9.752
REMARK  9 active torsions:
REMARK  status: ('A' for Active; 'I' for Inactive)
REMARK    1  A    between atoms: C_1  and  C_2 
REMARK    2  A    between atoms: C_1  and  O_7 
REMARK    3  A    between atoms: O_7  and  N_8 
REMARK    4  A    between atoms: C_9  and  C_10 
REMARK    5  A    between atoms: C_9  and  C_16 
REMARK       I    between atoms: C_16  and  N_18 
REMARK    6  A    between atoms: CA_19  and  N_18 
REMARK    7  A    between atoms: C_26  and  C_31 
REMARK    8  A    between atoms: CA_27  and  C_28 
REMARK    9  A    between atoms: C_31  and  N_32 
ROOT
ATOM      1  CA  UNL d   1      77.146  80.456  95.097  0.00  0.00     0.230 C 
ATOM      2  C   UNL d   1      77.971  81.513  95.723  0.00  0.00     0.270 C 
ATOM      3  O   UNL d   1      77.732  82.588  96.212  0.00  0.00    -0.269 OA
ATOM      4  N   UNL d   1      79.072  80.760  95.493  0.00  0.00    -0.266 N 
ATOM      5  C   UNL d   1      78.375  79.834  94.774  0.00  0.00     0.105 A 
ATOM      6  S   UNL d   1      78.936  78.529  93.860  0.00  0.00    -0.070 SA
ATOM      7  C   UNL d   1      80.508  78.893  94.314  0.00  0.00     0.047 A 
ATOM      8  C   UNL d   1      81.212  79.818  95.116  0.00  0.00     0.080 A 
ATOM      9  CA  UNL d   1      80.435  80.768  95.689  0.00  0.00     0.140 A 
ENDROOT
BRANCH   1  10
ATOM     10  N   UNL d   1      76.111  80.579  94.247  0.00  0.00    -0.218 NA
ATOM     11  C   UNL d   1      74.988  80.024  94.741  0.00  0.00     0.297 C 
ATOM     12  O   UNL d   1      74.647  79.844  95.909  0.00  0.00    -0.264 OA
BRANCH  11  13
ATOM     13  C   UNL d   1      74.007  79.600  93.651  0.00  0.00     0.183 C 
ATOM     14  N   UNL d   1      73.040  80.363  93.205  0.00  0.00    -0.124 NA
BRANCH  14  15
ATOM     15  O   UNL d   1      73.036  81.653  93.811  0.00  0.00    -0.231 OA
BRANCH  15  16
ATOM     16  C   UNL d   1      72.734  82.740  92.872  0.00  0.00     0.199 C 
ATOM     17  C   UNL d   1      72.820  84.175  93.609  0.00  0.00     0.044 C 
ATOM     18  C   UNL d   1      71.184  82.590  92.445  0.00  0.00     0.044 C 
BRANCH  16  19
ATOM     19  C   UNL d   1      73.716  82.582  91.522  0.00  0.00     0.213 C 
ATOM     20  O   UNL d   1      73.140  82.525  90.377  0.00  0.00    -0.646 OA
ATOM     21  O   UNL d   1      74.987  82.590  91.698  0.00  0.00    -0.646 OA
ENDBRANCH  16  19
ENDBRANCH  15  16
ENDBRANCH  14  15
BRANCH  13  22
ATOM     22  C   UNL d   1      74.161  78.307  92.980  0.00  0.00     0.114 A 
ATOM     23  N   UNL d   1      74.026  78.134  91.597  0.00  0.00    -0.223 NA
ATOM     24  C   UNL d   1      74.161  76.868  91.295  0.00  0.00     0.181 A 
ATOM     25  S   UNL d   1      74.446  75.796  92.592  0.00  0.00    -0.052 SA
ATOM     26  N   UNL d   1      74.059  76.402  89.949  0.00  0.00    -0.072 NA
ATOM     27  C   UNL d   1      74.386  77.123  93.651  0.00  0.00     0.059 A 
ENDBRANCH  13  22
ENDBRANCH  11  13
ENDBRANCH   1  10
BRANCH   9  28
ATOM     28  C   UNL d   1      81.214  81.721  96.606  0.00  0.00     0.229 C 
ATOM     29  O   UNL d   1      81.708  82.737  96.036  0.00  0.00    -0.643 OA
ATOM     30  OXT UNL d   1      80.947  81.600  97.846  0.00  0.00    -0.643 OA
ENDBRANCH   9  28
BRANCH   8  31
ATOM     31  C   UNL d   1      82.596  79.704  95.361  0.00  0.00    -0.018 C 
BRANCH  31  32
ATOM     32  N   UNL d   1      84.003  79.626  95.500  0.00  0.00    -0.270 N 
ATOM     33  C   UNL d   1      84.739  80.643  95.036  0.00  0.00     0.088 A 
ATOM     34  C   UNL d   1      86.125  80.575  95.111  0.00  0.00     0.020 A 
ATOM     35  C   UNL d   1      86.714  79.444  95.662  0.00  0.00     0.003 A 
ATOM     36  C   UNL d   1      85.919  78.406  96.130  0.00  0.00     0.020 A 
ATOM     37  C   UNL d   1      84.531  78.513  96.037  0.00  0.00     0.088 A 
ENDBRANCH  31  32
ENDBRANCH   8  31
TORSDOF 9
ENDMDL
MODEL 7
REMARK VINA RESULT:      -7.4      8.023     10.206
REMARK  9 active torsions:
REMARK  status: ('A' for Active; 'I' for Inactive)
REMARK    1  A    between atoms: C_1  and  C_2 
REMARK    2  A    between atoms: C_1  and  O_7 
REMARK    3  A    between atoms: O_7  and  N_8 
REMARK    4  A    between atoms: C_9  and  C_10 
REMARK    5  A    between atoms: C_9  and  C_16 
REMARK       I    between atoms: C_16  and  N_18 
REMARK    6  A    between atoms: CA_19  and  N_18 
REMARK    7  A    between atoms: C_26  and  C_31 
REMARK    8  A    between atoms: CA_27  and  C_28 
REMARK    9  A    between atoms: C_31  and  N_32 
ROOT
ATOM      1  CA  UNL d   1      81.667  75.521  97.950  0.00  0.00     0.230 C 
ATOM      2  C   UNL d   1      81.883  74.092  98.269  0.00  0.00     0.270 C 
ATOM      3  O   UNL d   1      82.846  73.369  98.278  0.00  0.00    -0.269 OA
ATOM      4  N   UNL d   1      80.559  73.969  98.519  0.00  0.00    -0.266 N 
ATOM      5  C   UNL d   1      80.288  75.235  98.089  0.00  0.00     0.105 A 
ATOM      6  S   UNL d   1      78.802  75.995  97.830  0.00  0.00    -0.070 SA
ATOM      7  C   UNL d   1      78.011  74.620  98.371  0.00  0.00     0.047 A 
ATOM      8  C   UNL d   1      78.306  73.335  98.879  0.00  0.00     0.080 A 
ATOM      9  CA  UNL d   1      79.626  73.039  98.921  0.00  0.00     0.140 A 
ENDROOT
BRANCH   1  10
ATOM     10  N   UNL d   1      82.193  76.258  96.956  0.00  0.00    -0.218 NA
ATOM     11  C   UNL d   1      81.834  77.553  97.048  0.00  0.00     0.297 C 
ATOM     12  O   UNL d   1      81.517  78.213  98.036  0.00  0.00    -0.264 OA
BRANCH  11  13
ATOM     13  C   UNL d   1      81.873  78.276  95.704  0.00  0.00     0.183 C 
ATOM     14  N   UNL d   1      82.660  79.290  95.446  0.00  0.00    -0.124 NA
BRANCH  14  15
ATOM     15  O   UNL d   1      83.515  79.613  96.540  0.00  0.00    -0.231 OA
BRANCH  15  16
ATOM     16  C   UNL d   1      84.498  80.657  96.226  0.00  0.00     0.199 C 
ATOM     17  C   UNL d   1      84.807  80.696  94.641  0.00  0.00     0.044 C 
ATOM     18  C   UNL d   1      85.897  80.221  96.906  0.00  0.00     0.044 C 
BRANCH  16  19
ATOM     19  C   UNL d   1      83.975  82.111  96.878  0.00  0.00     0.213 C 
ATOM     20  O   UNL d   1      82.712  82.260  97.049  0.00  0.00    -0.646 OA
ATOM     21  O   UNL d   1      84.863  82.967  97.230  0.00  0.00    -0.646 OA
ENDBRANCH  16  19
ENDBRANCH  15  16
ENDBRANCH  14  15
BRANCH  13  22
ATOM     22  C   UNL d   1      81.060  77.798  94.583  0.00  0.00     0.114 A 
ATOM     23  N   UNL d   1      81.589  77.117  93.480  0.00  0.00    -0.223 NA
ATOM     24  C   UNL d   1      80.637  76.866  92.618  0.00  0.00     0.181 A 
ATOM     25  S   UNL d   1      79.071  77.408  93.025  0.00  0.00    -0.052 SA
ATOM     26  N   UNL d   1      80.897  76.186  91.389  0.00  0.00    -0.072 NA
ATOM     27  C   UNL d   1      79.705  78.032  94.472  0.00  0.00     0.059 A 
ENDBRANCH  13  22
ENDBRANCH  11  13
ENDBRANCH   1  10
BRANCH   9  28
ATOM     28  C   UNL d   1      79.924  71.665  99.537  0.00  0.00     0.229 C 
ATOM     29  O   UNL d   1      79.879  70.690  98.730  0.00  0.00    -0.643 OA
ATOM     30  OXT UNL d   1      80.547  71.704 100.647  0.00  0.00    -0.643 OA
ENDBRANCH   9  28
BRANCH   8  31
ATOM     31  C   UNL d   1      77.307  72.472  99.374  0.00  0.00    -0.018 C 
BRANCH  31  32
ATOM     32  N   UNL d   1      76.233  71.695  99.874  0.00  0.00    -0.270 N 
ATOM     33  C   UNL d   1      75.878  70.601  99.190  0.00  0.00     0.088 A 
ATOM     34  C   UNL d   1      74.796  69.843  99.625  0.00  0.00     0.020 A 
ATOM     35  C   UNL d   1      74.105  70.248 100.760  0.00  0.00     0.003 A 
ATOM     36  C   UNL d   1      74.500  71.392 101.442  0.00  0.00     0.020 A 
ATOM     37  C   UNL d   1      75.591  72.124 100.973  0.00  0.00     0.088 A 
ENDBRANCH  31  32
ENDBRANCH   8  31
TORSDOF 9
ENDMDL
MODEL 8
REMARK VINA RESULT:      -7.4      2.940      4.457
REMARK  9 active torsions:
REMARK  status: ('A' for Active; 'I' for Inactive)
REMARK    1  A    between atoms: C_1  and  C_2 
REMARK    2  A    between atoms: C_1  and  O_7 
REMARK    3  A    between atoms: O_7  and  N_8 
REMARK    4  A    between atoms: C_9  and  C_10 
REMARK    5  A    between atoms: C_9  and  C_16 
REMARK       I    between atoms: C_16  and  N_18 
REMARK    6  A    between atoms: CA_19  and  N_18 
REMARK    7  A    between atoms: C_26  and  C_31 
REMARK    8  A    between atoms: CA_27  and  C_28 
REMARK    9  A    between atoms: C_31  and  N_32 
ROOT
ATOM      1  CA  UNL d   1      75.252  75.751  91.473  0.00  0.00     0.230 C 
ATOM      2  C   UNL d   1      76.554  75.518  90.809  0.00  0.00     0.270 C 
ATOM      3  O   UNL d   1      77.489  76.220  90.521  0.00  0.00    -0.269 OA
ATOM      4  N   UNL d   1      76.223  74.213  90.666  0.00  0.00    -0.266 N 
ATOM      5  C   UNL d   1      74.956  74.410  91.132  0.00  0.00     0.105 A 
ATOM      6  S   UNL d   1      73.640  73.353  91.164  0.00  0.00    -0.070 SA
ATOM      7  C   UNL d   1      74.600  72.144  90.511  0.00  0.00     0.047 A 
ATOM      8  C   UNL d   1      75.934  71.933  90.095  0.00  0.00     0.080 A 
ATOM      9  CA  UNL d   1      76.727  73.028  90.177  0.00  0.00     0.140 A 
ENDROOT
BRANCH   1  10
ATOM     10  N   UNL d   1      74.397  76.778  91.327  0.00  0.00    -0.218 NA
ATOM     11  C   UNL d   1      73.764  77.071  92.479  0.00  0.00     0.297 C 
ATOM     12  O   UNL d   1      74.122  76.891  93.642  0.00  0.00    -0.264 OA
BRANCH  11  13
ATOM     13  C   UNL d   1      72.419  77.759  92.259  0.00  0.00     0.183 C 
ATOM     14  N   UNL d   1      72.276  79.055  92.133  0.00  0.00    -0.124 NA
BRANCH  14  15
ATOM     15  O   UNL d   1      73.520  79.749  92.171  0.00  0.00    -0.231 OA
BRANCH  15  16
ATOM     16  C   UNL d   1      73.401  81.138  92.632  0.00  0.00     0.199 C 
ATOM     17  C   UNL d   1      74.061  81.315  94.096  0.00  0.00     0.044 C 
ATOM     18  C   UNL d   1      71.830  81.438  92.852  0.00  0.00     0.044 C 
BRANCH  16  19
ATOM     19  C   UNL d   1      74.019  82.158  91.453  0.00  0.00     0.213 C 
ATOM     20  O   UNL d   1      75.261  82.467  91.532  0.00  0.00    -0.646 OA
ATOM     21  O   UNL d   1      73.236  82.524  90.504  0.00  0.00    -0.646 OA
ENDBRANCH  16  19
ENDBRANCH  15  16
ENDBRANCH  14  15
BRANCH  13  22
ATOM     22  C   UNL d   1      71.199  76.964  92.095  0.00  0.00     0.114 A 
ATOM     23  N   UNL d   1      69.984  77.498  91.649  0.00  0.00    -0.223 NA
ATOM     24  C   UNL d   1      69.065  76.566  91.656  0.00  0.00     0.181 A 
ATOM     25  S   UNL d   1      69.546  75.016  92.184  0.00  0.00    -0.052 SA
ATOM     26  N   UNL d   1      67.720  76.835  91.256  0.00  0.00    -0.072 NA
ATOM     27  C   UNL d   1      71.111  75.628  92.427  0.00  0.00     0.059 A 
ENDBRANCH  13  22
ENDBRANCH  11  13
ENDBRANCH   1  10
BRANCH   9  28
ATOM     28  C   UNL d   1      78.184  72.757  89.781  0.00  0.00     0.229 C 
ATOM     29  O   UNL d   1      78.519  73.173  88.634  0.00  0.00    -0.643 OA
ATOM     30  OXT UNL d   1      78.964  72.517  90.760  0.00  0.00    -0.643 OA
ENDBRANCH   9  28
BRANCH   8  31
ATOM     31  C   UNL d   1      76.411  70.665  89.706  0.00  0.00    -0.018 C 
BRANCH  31  32
ATOM     32  N   UNL d   1      76.860  69.417  89.209  0.00  0.00    -0.270 N 
ATOM     33  C   UNL d   1      76.602  69.120  87.929  0.00  0.00     0.088 A 
ATOM     34  C   UNL d   1      76.984  67.882  87.424  0.00  0.00     0.020 A 
ATOM     35  C   UNL d   1      77.620  66.980  88.265  0.00  0.00     0.003 A 
ATOM     36  C   UNL d   1      77.868  67.321  89.589  0.00  0.00     0.020 A 
ATOM     37  C   UNL d   1      77.469  68.573  90.057  0.00  0.00     0.088 A 
ENDBRANCH  31  32
ENDBRANCH   8  31
TORSDOF 9
ENDMDL
MODEL 9
REMARK VINA RESULT:      -7.3      2.971      4.326
REMARK  9 active torsions:
REMARK  status: ('A' for Active; 'I' for Inactive)
REMARK    1  A    between atoms: C_1  and  C_2 
REMARK    2  A    between atoms: C_1  and  O_7 
REMARK    3  A    between atoms: O_7  and  N_8 
REMARK    4  A    between atoms: C_9  and  C_10 
REMARK    5  A    between atoms: C_9  and  C_16 
REMARK       I    between atoms: C_16  and  N_18 
REMARK    6  A    between atoms: CA_19  and  N_18 
REMARK    7  A    between atoms: C_26  and  C_31 
REMARK    8  A    between atoms: CA_27  and  C_28 
REMARK    9  A    between atoms: C_31  and  N_32 
ROOT
ATOM      1  CA  UNL d   1      75.872  76.122  91.466  0.00  0.00     0.230 C 
ATOM      2  C   UNL d   1      77.111  75.720  90.762  0.00  0.00     0.270 C 
ATOM      3  O   UNL d   1      78.127  76.289  90.457  0.00  0.00    -0.269 OA
ATOM      4  N   UNL d   1      76.594  74.478  90.607  0.00  0.00    -0.266 N 
ATOM      5  C   UNL d   1      75.381  74.843  91.112  0.00  0.00     0.105 A 
ATOM      6  S   UNL d   1      73.929  73.982  91.166  0.00  0.00    -0.070 SA
ATOM      7  C   UNL d   1      74.691  72.663  90.466  0.00  0.00     0.047 A 
ATOM      8  C   UNL d   1      75.970  72.274  90.008  0.00  0.00     0.080 A 
ATOM      9  CA  UNL d   1      76.911  73.244  90.085  0.00  0.00     0.140 A 
ENDROOT
BRANCH   1  10
ATOM     10  N   UNL d   1      75.168  77.262  91.361  0.00  0.00    -0.218 NA
ATOM     11  C   UNL d   1      74.716  77.684  92.558  0.00  0.00     0.297 C 
ATOM     12  O   UNL d   1      75.170  77.488  93.684  0.00  0.00    -0.264 OA
BRANCH  11  13
ATOM     13  C   UNL d   1      73.472  78.562  92.446  0.00  0.00     0.183 C 
ATOM     14  N   UNL d   1      73.507  79.869  92.375  0.00  0.00    -0.124 NA
BRANCH  14  15
ATOM     15  O   UNL d   1      74.838  80.381  92.361  0.00  0.00    -0.231 OA
BRANCH  15  16
ATOM     16  C   UNL d   1      74.903  81.844  92.473  0.00  0.00     0.199 C 
ATOM     17  C   UNL d   1      74.453  82.326  93.948  0.00  0.00     0.044 C 
ATOM     18  C   UNL d   1      73.781  82.453  91.483  0.00  0.00     0.044 C 
BRANCH  16  19
ATOM     19  C   UNL d   1      76.426  82.359  91.997  0.00  0.00     0.213 C 
ATOM     20  O   UNL d   1      76.494  83.434  91.300  0.00  0.00    -0.646 OA
ATOM     21  O   UNL d   1      77.442  81.691  92.406  0.00  0.00    -0.646 OA
ENDBRANCH  16  19
ENDBRANCH  15  16
ENDBRANCH  14  15
BRANCH  13  22
ATOM     22  C   UNL d   1      72.145  77.953  92.329  0.00  0.00     0.114 A 
ATOM     23  N   UNL d   1      71.060  78.579  91.703  0.00  0.00    -0.223 NA
ATOM     24  C   UNL d   1      69.997  77.822  91.802  0.00  0.00     0.181 A 
ATOM     25  S   UNL d   1      70.183  76.341  92.630  0.00  0.00    -0.052 SA
ATOM     26  N   UNL d   1      68.738  78.221  91.258  0.00  0.00    -0.072 NA
ATOM     27  C   UNL d   1      71.816  76.733  92.883  0.00  0.00     0.059 A 
ENDBRANCH  13  22
ENDBRANCH  11  13
ENDBRANCH   1  10
BRANCH   9  28
ATOM     28  C   UNL d   1      78.305  72.778  89.644  0.00  0.00     0.229 C 
ATOM     29  O   UNL d   1      78.669  73.172  88.497  0.00  0.00    -0.643 OA
ATOM     30  OXT UNL d   1      79.065  72.402  90.594  0.00  0.00    -0.643 OA
ENDBRANCH   9  28
BRANCH   8  31
ATOM     31  C   UNL d   1      76.251  70.959  89.586  0.00  0.00    -0.018 C 
BRANCH  31  32
ATOM     32  N   UNL d   1      76.596  69.683  89.078  0.00  0.00    -0.270 N 
ATOM     33  C   UNL d   1      77.286  68.856  89.872  0.00  0.00     0.088 A 
ATOM     34  C   UNL d   1      77.685  67.615  89.387  0.00  0.00     0.020 A 
ATOM     35  C   UNL d   1      77.362  67.268  88.082  0.00  0.00     0.003 A 
ATOM     36  C   UNL d   1      76.648  68.154  87.285  0.00  0.00     0.020 A 
ATOM     37  C   UNL d   1      76.266  69.389  87.809  0.00  0.00     0.088 A 
ENDBRANCH  31  32
ENDBRANCH   8  31
TORSDOF 9
ENDMDL
MODEL 10
REMARK VINA RESULT:      -7.3      9.438     11.569
REMARK  9 active torsions:
REMARK  status: ('A' for Active; 'I' for Inactive)
REMARK    1  A    between atoms: C_1  and  C_2 
REMARK    2  A    between atoms: C_1  and  O_7 
REMARK    3  A    between atoms: O_7  and  N_8 
REMARK    4  A    between atoms: C_9  and  C_10 
REMARK    5  A    between atoms: C_9  and  C_16 
REMARK       I    between atoms: C_16  and  N_18 
REMARK    6  A    between atoms: CA_19  and  N_18 
REMARK    7  A    between atoms: C_26  and  C_31 
REMARK    8  A    between atoms: CA_27  and  C_28 
REMARK    9  A    between atoms: C_31  and  N_32 
ROOT
ATOM      1  CA  UNL d   1      77.309  80.898  97.583  0.00  0.00     0.230 C 
ATOM      2  C   UNL d   1      78.277  82.002  97.395  0.00  0.00     0.270 C 
ATOM      3  O   UNL d   1      78.206  83.203  97.456  0.00  0.00    -0.269 OA
ATOM      4  N   UNL d   1      79.235  81.086  97.120  0.00  0.00    -0.266 N 
ATOM      5  C   UNL d   1      78.347  80.050  97.133  0.00  0.00     0.105 A 
ATOM      6  S   UNL d   1      78.566  78.434  96.694  0.00  0.00    -0.070 SA
ATOM      7  C   UNL d   1      80.183  78.743  96.379  0.00  0.00     0.047 A 
ATOM      8  C   UNL d   1      81.108  79.809  96.435  0.00  0.00     0.080 A 
ATOM      9  CA  UNL d   1      80.572  80.997  96.805  0.00  0.00     0.140 A 
ENDROOT
BRANCH   1  10
ATOM     10  N   UNL d   1      76.029  80.814  97.179  0.00  0.00    -0.218 NA
ATOM     11  C   UNL d   1      75.180  81.317  98.094  0.00  0.00     0.297 C 
ATOM     12  O   UNL d   1      75.368  82.176  98.955  0.00  0.00    -0.264 OA
BRANCH  11  13
ATOM     13  C   UNL d   1      73.775  80.727  97.988  0.00  0.00     0.183 C 
ATOM     14  N   UNL d   1      73.303  79.820  98.806  0.00  0.00    -0.124 NA
BRANCH  14  15
ATOM     15  O   UNL d   1      74.225  79.481  99.839  0.00  0.00    -0.231 OA
BRANCH  15  16
ATOM     16  C   UNL d   1      73.703  79.720 101.190  0.00  0.00     0.199 C 
ATOM     17  C   UNL d   1      72.767  81.036 101.218  0.00  0.00     0.044 C 
ATOM     18  C   UNL d   1      74.960  80.090 102.133  0.00  0.00     0.044 C 
BRANCH  16  19
ATOM     19  C   UNL d   1      72.966  78.319 101.745  0.00  0.00     0.213 C 
ATOM     20  O   UNL d   1      72.215  78.418 102.781  0.00  0.00    -0.646 OA
ATOM     21  O   UNL d   1      73.139  77.241 101.072  0.00  0.00    -0.646 OA
ENDBRANCH  16  19
ENDBRANCH  15  16
ENDBRANCH  14  15
BRANCH  13  22
ATOM     22  C   UNL d   1      72.838  81.227  96.979  0.00  0.00     0.114 A 
ATOM     23  N   UNL d   1      72.996  82.451  96.317  0.00  0.00    -0.223 NA
ATOM     24  C   UNL d   1      71.979  82.655  95.519  0.00  0.00     0.181 A 
ATOM     25  S   UNL d   1      70.773  81.448  95.487  0.00  0.00    -0.052 SA
ATOM     26  N   UNL d   1      71.875  83.836  94.723  0.00  0.00    -0.072 NA
ATOM     27  C   UNL d   1      71.673  80.574  96.633  0.00  0.00     0.059 A 
ENDBRANCH  13  22
ENDBRANCH  11  13
ENDBRANCH   1  10
BRANCH   9  28
ATOM     28  C   UNL d   1      81.608  82.123  96.921  0.00  0.00     0.229 C 
ATOM     29  O   UNL d   1      81.873  82.727  95.841  0.00  0.00    -0.643 OA
ATOM     30  OXT UNL d   1      81.777  82.570  98.102  0.00  0.00    -0.643 OA
ENDBRANCH   9  28
BRANCH   8  31
ATOM     31  C   UNL d   1      82.486  79.625  96.203  0.00  0.00    -0.018 C 
BRANCH  31  32
ATOM     32  N   UNL d   1      83.890  79.516  96.050  0.00  0.00    -0.270 N 
ATOM     33  C   UNL d   1      84.592  80.643  95.878  0.00  0.00     0.088 A 
ATOM     34  C   UNL d   1      85.966  80.569  95.674  0.00  0.00     0.020 A 
ATOM     35  C   UNL d   1      86.575  79.321  95.647  0.00  0.00     0.003 A 
ATOM     36  C   UNL d   1      85.813  78.173  95.825  0.00  0.00     0.020 A 
ATOM     37  C   UNL d   1      84.438  78.290  96.027  0.00  0.00     0.088 A 
ENDBRANCH  31  32
ENDBRANCH   8  31
TORSDOF 9
ENDMDL
MODEL 11
REMARK VINA RESULT:      -7.2     16.264     20.252
REMARK  9 active torsions:
REMARK  status: ('A' for Active; 'I' for Inactive)
REMARK    1  A    between atoms: C_1  and  C_2 
REMARK    2  A    between atoms: C_1  and  O_7 
REMARK    3  A    between atoms: O_7  and  N_8 
REMARK    4  A    between atoms: C_9  and  C_10 
REMARK    5  A    between atoms: C_9  and  C_16 
REMARK       I    between atoms: C_16  and  N_18 
REMARK    6  A    between atoms: CA_19  and  N_18 
REMARK    7  A    between atoms: C_26  and  C_31 
REMARK    8  A    between atoms: CA_27  and  C_28 
REMARK    9  A    between atoms: C_31  and  N_32 
ROOT
ATOM      1  CA  UNL d   1      60.189  87.521  90.882  0.00  0.00     0.230 C 
ATOM      2  C   UNL d   1      58.764  87.923  90.866  0.00  0.00     0.270 C 
ATOM      3  O   UNL d   1      58.163  88.906  91.215  0.00  0.00    -0.269 OA
ATOM      4  N   UNL d   1      58.455  86.724  90.318  0.00  0.00    -0.266 N 
ATOM      5  C   UNL d   1      59.728  86.254  90.453  0.00  0.00     0.105 A 
ATOM      6  S   UNL d   1      60.339  84.699  90.206  0.00  0.00    -0.070 SA
ATOM      7  C   UNL d   1      58.820  84.185  89.719  0.00  0.00     0.047 A 
ATOM      8  C   UNL d   1      57.520  84.701  89.518  0.00  0.00     0.080 A 
ATOM      9  CA  UNL d   1      57.376  86.005  89.855  0.00  0.00     0.140 A 
ENDROOT
BRANCH   1  10
ATOM     10  N   UNL d   1      61.113  87.709  91.840  0.00  0.00    -0.218 NA
ATOM     11  C   UNL d   1      62.273  88.170  91.335  0.00  0.00     0.297 C 
ATOM     12  O   UNL d   1      62.482  88.824  90.314  0.00  0.00    -0.264 OA
BRANCH  11  13
ATOM     13  C   UNL d   1      63.477  87.833  92.211  0.00  0.00     0.183 C 
ATOM     14  N   UNL d   1      63.773  88.469  93.317  0.00  0.00    -0.124 NA
BRANCH  14  15
ATOM     15  O   UNL d   1      62.818  89.476  93.642  0.00  0.00    -0.231 OA
BRANCH  15  16
ATOM     16  C   UNL d   1      63.421  90.702  94.180  0.00  0.00     0.199 C 
ATOM     17  C   UNL d   1      64.516  90.352  95.315  0.00  0.00     0.044 C 
ATOM     18  C   UNL d   1      62.260  91.505  94.964  0.00  0.00     0.044 C 
BRANCH  16  19
ATOM     19  C   UNL d   1      63.997  91.629  92.907  0.00  0.00     0.213 C 
ATOM     20  O   UNL d   1      65.094  92.268  93.091  0.00  0.00    -0.646 OA
ATOM     21  O   UNL d   1      63.349  91.601  91.800  0.00  0.00    -0.646 OA
ENDBRANCH  16  19
ENDBRANCH  15  16
ENDBRANCH  14  15
BRANCH  13  22
ATOM     22  C   UNL d   1      64.337  86.693  91.881  0.00  0.00     0.114 A 
ATOM     23  N   UNL d   1      63.879  85.549  91.216  0.00  0.00    -0.223 NA
ATOM     24  C   UNL d   1      64.854  84.682  91.111  0.00  0.00     0.181 A 
ATOM     25  S   UNL d   1      66.358  85.131  91.779  0.00  0.00    -0.052 SA
ATOM     26  N   UNL d   1      64.665  83.413  90.481  0.00  0.00    -0.072 NA
ATOM     27  C   UNL d   1      65.662  86.607  92.253  0.00  0.00     0.059 A 
ENDBRANCH  13  22
ENDBRANCH  11  13
ENDBRANCH   1  10
BRANCH   9  28
ATOM     28  C   UNL d   1      55.974  86.558  89.567  0.00  0.00     0.229 C 
ATOM     29  O   UNL d   1      55.247  86.745  90.586  0.00  0.00    -0.643 OA
ATOM     30  OXT UNL d   1      55.847  87.119  88.430  0.00  0.00    -0.643 OA
ENDBRANCH   9  28
BRANCH   8  31
ATOM     31  C   UNL d   1      56.486  83.937  88.939  0.00  0.00    -0.018 C 
BRANCH  31  32
ATOM     32  N   UNL d   1      55.471  83.220  88.259  0.00  0.00    -0.270 N 
ATOM     33  C   UNL d   1      55.412  81.895  88.435  0.00  0.00     0.088 A 
ATOM     34  C   UNL d   1      54.460  81.155  87.742  0.00  0.00     0.020 A 
ATOM     35  C   UNL d   1      53.597  81.812  86.876  0.00  0.00     0.003 A 
ATOM     36  C   UNL d   1      53.690  83.189  86.715  0.00  0.00     0.020 A 
ATOM     37  C   UNL d   1      54.659  83.895  87.429  0.00  0.00     0.088 A 
ENDBRANCH  31  32
ENDBRANCH   8  31
TORSDOF 9
ENDMDL
MODEL 12
REMARK VINA RESULT:      -7.1      4.263     10.428
REMARK  9 active torsions:
REMARK  status: ('A' for Active; 'I' for Inactive)
REMARK    1  A    between atoms: C_1  and  C_2 
REMARK    2  A    between atoms: C_1  and  O_7 
REMARK    3  A    between atoms: O_7  and  N_8 
REMARK    4  A    between atoms: C_9  and  C_10 
REMARK    5  A    between atoms: C_9  and  C_16 
REMARK       I    between atoms: C_16  and  N_18 
REMARK    6  A    between atoms: CA_19  and  N_18 
REMARK    7  A    between atoms: C_26  and  C_31 
REMARK    8  A    between atoms: CA_27  and  C_28 
REMARK    9  A    between atoms: C_31  and  N_32 
ROOT
ATOM      1  CA  UNL d   1      79.445  74.119  91.333  0.00  0.00     0.230 C 
ATOM      2  C   UNL d   1      80.577  74.059  92.285  0.00  0.00     0.270 C 
ATOM      3  O   UNL d   1      81.368  73.207  92.598  0.00  0.00    -0.269 OA
ATOM      4  N   UNL d   1      80.318  75.339  92.640  0.00  0.00    -0.266 N 
ATOM      5  C   UNL d   1      79.179  75.391  91.893  0.00  0.00     0.105 A 
ATOM      6  S   UNL d   1      77.984  76.582  91.823  0.00  0.00    -0.070 SA
ATOM      7  C   UNL d   1      78.857  77.514  92.909  0.00  0.00     0.047 A 
ATOM      8  C   UNL d   1      80.074  77.478  93.627  0.00  0.00     0.080 A 
ATOM      9  CA  UNL d   1      80.783  76.335  93.471  0.00  0.00     0.140 A 
ENDROOT
BRANCH   1  10
ATOM     10  N   UNL d   1      78.507  73.192  91.071  0.00  0.00    -0.218 NA
ATOM     11  C   UNL d   1      78.081  73.257  89.795  0.00  0.00     0.297 C 
ATOM     12  O   UNL d   1      78.663  73.666  88.791  0.00  0.00    -0.264 OA
BRANCH  11  13
ATOM     13  C   UNL d   1      76.673  72.696  89.610  0.00  0.00     0.183 C 
ATOM     14  N   UNL d   1      76.415  71.557  89.018  0.00  0.00    -0.124 NA
BRANCH  14  15
ATOM     15  O   UNL d   1      77.597  70.871  88.612  0.00  0.00    -0.231 OA
BRANCH  15  16
ATOM     16  C   UNL d   1      77.599  69.447  88.968  0.00  0.00     0.199 C 
ATOM     17  C   UNL d   1      76.562  69.156  90.173  0.00  0.00     0.044 C 
ATOM     18  C   UNL d   1      79.051  69.107  89.586  0.00  0.00     0.044 C 
BRANCH  16  19
ATOM     19  C   UNL d   1      77.341  68.539  87.582  0.00  0.00     0.213 C 
ATOM     20  O   UNL d   1      78.011  67.452  87.455  0.00  0.00    -0.646 OA
ATOM     21  O   UNL d   1      76.445  68.942  86.756  0.00  0.00    -0.646 OA
ENDBRANCH  16  19
ENDBRANCH  15  16
ENDBRANCH  14  15
BRANCH  13  22
ATOM     22  C   UNL d   1      75.518  73.397  90.177  0.00  0.00     0.114 A 
ATOM     23  N   UNL d   1      75.365  74.788  90.141  0.00  0.00    -0.223 NA
ATOM     24  C   UNL d   1      74.270  75.127  90.772  0.00  0.00     0.181 A 
ATOM     25  S   UNL d   1      73.351  73.860  91.452  0.00  0.00    -0.052 SA
ATOM     26  N   UNL d   1      73.869  76.493  90.900  0.00  0.00    -0.072 NA
ATOM     27  C   UNL d   1      74.503  72.761  90.862  0.00  0.00     0.059 A 
ENDBRANCH  13  22
ENDBRANCH  11  13
ENDBRANCH   1  10
BRANCH   9  28
ATOM     28  C   UNL d   1      82.129  76.347  94.207  0.00  0.00     0.229 C 
ATOM     29  O   UNL d   1      82.152  75.712  95.302  0.00  0.00    -0.643 OA
ATOM     30  OXT UNL d   1      83.132  76.637  93.477  0.00  0.00    -0.643 OA
ENDBRANCH   9  28
BRANCH   8  31
ATOM     31  C   UNL d   1      80.541  78.578  94.374  0.00  0.00    -0.018 C 
BRANCH  31  32
ATOM     32  N   UNL d   1      81.019  79.740  95.028  0.00  0.00    -0.270 N 
ATOM     33  C   UNL d   1      80.319  80.209  96.068  0.00  0.00     0.088 A 
ATOM     34  C   UNL d   1      80.731  81.376  96.701  0.00  0.00     0.020 A 
ATOM     35  C   UNL d   1      81.859  82.033  96.229  0.00  0.00     0.003 A 
ATOM     36  C   UNL d   1      82.559  81.520  95.144  0.00  0.00     0.020 A 
ATOM     37  C   UNL d   1      82.112  80.346  94.538  0.00  0.00     0.088 A 
ENDBRANCH  31  32
ENDBRANCH   8  31
TORSDOF 9
ENDMDL
MODEL 13
REMARK VINA RESULT:      -7.0      8.670     11.800
REMARK  9 active torsions:
REMARK  status: ('A' for Active; 'I' for Inactive)
REMARK    1  A    between atoms: C_1  and  C_2 
REMARK    2  A    between atoms: C_1  and  O_7 
REMARK    3  A    between atoms: O_7  and  N_8 
REMARK    4  A    between atoms: C_9  and  C_10 
REMARK    5  A    between atoms: C_9  and  C_16 
REMARK       I    between atoms: C_16  and  N_18 
REMARK    6  A    between atoms: CA_19  and  N_18 
REMARK    7  A    between atoms: C_26  and  C_31 
REMARK    8  A    between atoms: CA_27  and  C_28 
REMARK    9  A    between atoms: C_31  and  N_32 
ROOT
ATOM      1  CA  UNL d   1      79.238  75.373  98.571  0.00  0.00     0.230 C 
ATOM      2  C   UNL d   1      78.951  76.744  98.092  0.00  0.00     0.270 C 
ATOM      3  O   UNL d   1      77.974  77.448  98.095  0.00  0.00    -0.269 OA
ATOM      4  N   UNL d   1      80.228  76.835  97.654  0.00  0.00    -0.266 N 
ATOM      5  C   UNL d   1      80.494  75.528  97.939  0.00  0.00     0.105 A 
ATOM      6  S   UNL d   1      81.848  74.593  97.560  0.00  0.00    -0.070 SA
ATOM      7  C   UNL d   1      82.569  75.931  96.853  0.00  0.00     0.047 A 
ATOM      8  C   UNL d   1      82.309  77.301  96.623  0.00  0.00     0.080 A 
ATOM      9  CA  UNL d   1      81.088  77.716  97.037  0.00  0.00     0.140 A 
ENDROOT
BRANCH   1  10
ATOM     10  N   UNL d   1      78.477  74.268  98.486  0.00  0.00    -0.218 NA
ATOM     11  C   UNL d   1      78.300  73.688  99.689  0.00  0.00     0.297 C 
ATOM     12  O   UNL d   1      78.322  74.185 100.814  0.00  0.00    -0.264 OA
BRANCH  11  13
ATOM     13  C   UNL d   1      77.997  72.194  99.589  0.00  0.00     0.183 C 
ATOM     14  N   UNL d   1      76.786  71.696  99.585  0.00  0.00    -0.124 NA
BRANCH  14  15
ATOM     15  O   UNL d   1      75.779  72.704  99.633  0.00  0.00    -0.231 OA
BRANCH  15  16
ATOM     16  C   UNL d   1      74.484  72.215 100.122  0.00  0.00     0.199 C 
ATOM     17  C   UNL d   1      73.521  73.447 100.528  0.00  0.00     0.044 C 
ATOM     18  C   UNL d   1      74.757  71.434 101.509  0.00  0.00     0.044 C 
BRANCH  16  19
ATOM     19  C   UNL d   1      73.838  71.160  98.990  0.00  0.00     0.213 C 
ATOM     20  O   UNL d   1      73.945  69.903  99.226  0.00  0.00    -0.646 OA
ATOM     21  O   UNL d   1      73.218  71.662  97.984  0.00  0.00    -0.646 OA
ENDBRANCH  16  19
ENDBRANCH  15  16
ENDBRANCH  14  15
BRANCH  13  22
ATOM     22  C   UNL d   1      79.084  71.230  99.405  0.00  0.00     0.114 A 
ATOM     23  N   UNL d   1      80.401  71.599  99.104  0.00  0.00    -0.223 NA
ATOM     24  C   UNL d   1      81.133  70.526  98.944  0.00  0.00     0.181 A 
ATOM     25  S   UNL d   1      80.345  69.023  99.125  0.00  0.00    -0.052 SA
ATOM     26  N   UNL d   1      82.522  70.607  98.618  0.00  0.00    -0.072 NA
ATOM     27  C   UNL d   1      78.903  69.863  99.444  0.00  0.00     0.059 A 
ENDBRANCH  13  22
ENDBRANCH  11  13
ENDBRANCH   1  10
BRANCH   9  28
ATOM     28  C   UNL d   1      80.855  79.220  96.836  0.00  0.00     0.229 C 
ATOM     29  O   UNL d   1      80.258  79.536  95.766  0.00  0.00    -0.643 OA
ATOM     30  OXT UNL d   1      80.925  79.915  97.901  0.00  0.00    -0.643 OA
ENDBRANCH   9  28
BRANCH   8  31
ATOM     31  C   UNL d   1      83.277  78.172  96.083  0.00  0.00    -0.018 C 
BRANCH  31  32
ATOM     32  N   UNL d   1      84.272  79.080  95.646  0.00  0.00    -0.270 N 
ATOM     33  C   UNL d   1      85.437  79.101  96.304  0.00  0.00     0.088 A 
ATOM     34  C   UNL d   1      86.416  80.016  95.934  0.00  0.00     0.020 A 
ATOM     35  C   UNL d   1      86.155  80.893  94.890  0.00  0.00     0.003 A 
ATOM     36  C   UNL d   1      84.933  80.846  94.232  0.00  0.00     0.020 A 
ATOM     37  C   UNL d   1      83.977  79.913  94.634  0.00  0.00     0.088 A 
ENDBRANCH  31  32
ENDBRANCH   8  31
TORSDOF 9
ENDMDL
MODEL 14
REMARK VINA RESULT:      -7.0      5.406      9.651
REMARK  9 active torsions:
REMARK  status: ('A' for Active; 'I' for Inactive)
REMARK    1  A    between atoms: C_1  and  C_2 
REMARK    2  A    between atoms: C_1  and  O_7 
REMARK    3  A    between atoms: O_7  and  N_8 
REMARK    4  A    between atoms: C_9  and  C_10 
REMARK    5  A    between atoms: C_9  and  C_16 
REMARK       I    between atoms: C_16  and  N_18 
REMARK    6  A    between atoms: CA_19  and  N_18 
REMARK    7  A    between atoms: C_26  and  C_31 
REMARK    8  A    between atoms: CA_27  and  C_28 
REMARK    9  A    between atoms: C_31  and  N_32 
ROOT
ATOM      1  CA  UNL d   1      76.891  78.820  93.219  0.00  0.00     0.230 C 
ATOM      2  C   UNL d   1      77.983  77.822  93.236  0.00  0.00     0.270 C 
ATOM      3  O   UNL d   1      78.085  76.680  92.866  0.00  0.00    -0.269 OA
ATOM      4  N   UNL d   1      78.778  78.733  93.845  0.00  0.00    -0.266 N 
ATOM      5  C   UNL d   1      77.759  79.629  93.989  0.00  0.00     0.105 A 
ATOM      6  S   UNL d   1      77.713  81.085  94.844  0.00  0.00    -0.070 SA
ATOM      7  C   UNL d   1      79.324  80.886  95.261  0.00  0.00     0.047 A 
ATOM      8  C   UNL d   1      80.390  79.983  95.047  0.00  0.00     0.080 A 
ATOM      9  CA  UNL d   1      80.058  78.884  94.329  0.00  0.00     0.140 A 
ENDROOT
BRANCH   1  10
ATOM     10  N   UNL d   1      75.582  78.650  93.478  0.00  0.00    -0.218 NA
ATOM     11  C   UNL d   1      74.835  78.742  92.362  0.00  0.00     0.297 C 
ATOM     12  O   UNL d   1      75.138  78.518  91.191  0.00  0.00    -0.264 OA
BRANCH  11  13
ATOM     13  C   UNL d   1      73.393  79.157  92.645  0.00  0.00     0.183 C 
ATOM     14  N   UNL d   1      72.395  78.313  92.728  0.00  0.00    -0.124 NA
BRANCH  14  15
ATOM     15  O   UNL d   1      72.810  76.957  92.575  0.00  0.00    -0.231 OA
BRANCH  15  16
ATOM     16  C   UNL d   1      71.831  76.122  91.869  0.00  0.00     0.199 C 
ATOM     17  C   UNL d   1      70.765  75.489  92.906  0.00  0.00     0.044 C 
ATOM     18  C   UNL d   1      72.626  74.849  91.272  0.00  0.00     0.044 C 
BRANCH  16  19
ATOM     19  C   UNL d   1      71.155  77.012  90.619  0.00  0.00     0.213 C 
ATOM     20  O   UNL d   1      69.982  77.497  90.807  0.00  0.00    -0.646 OA
ATOM     21  O   UNL d   1      71.868  77.215  89.571  0.00  0.00    -0.646 OA
ENDBRANCH  16  19
ENDBRANCH  15  16
ENDBRANCH  14  15
BRANCH  13  22
ATOM     22  C   UNL d   1      73.068  80.558  92.926  0.00  0.00     0.114 A 
ATOM     23  N   UNL d   1      72.422  81.398  92.011  0.00  0.00    -0.223 NA
ATOM     24  C   UNL d   1      72.318  82.601  92.516  0.00  0.00     0.181 A 
ATOM     25  S   UNL d   1      72.965  82.838  94.078  0.00  0.00    -0.052 SA
ATOM     26  N   UNL d   1      71.706  83.669  91.791  0.00  0.00    -0.072 NA
ATOM     27  C   UNL d   1      73.428  81.204  94.091  0.00  0.00     0.059 A 
ENDBRANCH  13  22
ENDBRANCH  11  13
ENDBRANCH   1  10
BRANCH   9  28
ATOM     28  C   UNL d   1      81.246  77.952  94.055  0.00  0.00     0.229 C 
ATOM     29  O   UNL d   1      81.286  76.905  94.764  0.00  0.00    -0.643 OA
ATOM     30  OXT UNL d   1      81.810  78.127  92.926  0.00  0.00    -0.643 OA
ENDBRANCH   9  28
BRANCH   8  31
ATOM     31  C   UNL d   1      81.704  80.252  95.480  0.00  0.00    -0.018 C 
BRANCH  31  32
ATOM     32  N   UNL d   1      82.983  80.608  95.976  0.00  0.00    -0.270 N 
ATOM     33  C   UNL d   1      83.175  81.874  96.366  0.00  0.00     0.088 A 
ATOM     34  C   UNL d   1      84.432  82.269  96.810  0.00  0.00     0.020 A 
ATOM     35  C   UNL d   1      85.462  81.338  96.830  0.00  0.00     0.003 A 
ATOM     36  C   UNL d   1      85.226  80.033  96.413  0.00  0.00     0.020 A 
ATOM     37  C   UNL d   1      83.951  79.677  95.975  0.00  0.00     0.088 A 
ENDBRANCH  31  32
ENDBRANCH   8  31
TORSDOF 9
ENDMDL
MODEL 15
REMARK VINA RESULT:      -6.9      5.120      6.824
REMARK  9 active torsions:
REMARK  status: ('A' for Active; 'I' for Inactive)
REMARK    1  A    between atoms: C_1  and  C_2 
REMARK    2  A    between atoms: C_1  and  O_7 
REMARK    3  A    between atoms: O_7  and  N_8 
REMARK    4  A    between atoms: C_9  and  C_10 
REMARK    5  A    between atoms: C_9  and  C_16 
REMARK       I    between atoms: C_16  and  N_18 
REMARK    6  A    between atoms: CA_19  and  N_18 
REMARK    7  A    between atoms: C_26  and  C_31 
REMARK    8  A    between atoms: CA_27  and  C_28 
REMARK    9  A    between atoms: C_31  and  N_32 
ROOT
ATOM      1  CA  UNL d   1      80.301  77.224  93.737  0.00  0.00     0.230 C 
ATOM      2  C   UNL d   1      78.923  77.156  93.201  0.00  0.00     0.270 C 
ATOM      3  O   UNL d   1      77.983  77.908  93.199  0.00  0.00    -0.269 OA
ATOM      4  N   UNL d   1      79.186  75.908  92.745  0.00  0.00    -0.266 N 
ATOM      5  C   UNL d   1      80.406  75.866  93.353  0.00  0.00     0.105 A 
ATOM      6  S   UNL d   1      81.483  74.577  93.529  0.00  0.00    -0.070 SA
ATOM      7  C   UNL d   1      80.450  73.600  92.642  0.00  0.00     0.047 A 
ATOM      8  C   UNL d   1      79.215  73.675  91.959  0.00  0.00     0.080 A 
ATOM      9  CA  UNL d   1      78.595  74.875  92.053  0.00  0.00     0.140 A 
ENDROOT
BRANCH   1  10
ATOM     10  N   UNL d   1      80.731  77.716  94.913  0.00  0.00    -0.218 NA
ATOM     11  C   UNL d   1      81.170  78.984  94.795  0.00  0.00     0.297 C 
ATOM     12  O   UNL d   1      80.857  79.853  93.982  0.00  0.00    -0.264 OA
BRANCH  11  13
ATOM     13  C   UNL d   1      82.181  79.364  95.873  0.00  0.00     0.183 C 
ATOM     14  N   UNL d   1      81.848  79.808  97.060  0.00  0.00    -0.124 NA
BRANCH  14  15
ATOM     15  O   UNL d   1      80.436  79.849  97.253  0.00  0.00    -0.231 OA
BRANCH  15  16
ATOM     16  C   UNL d   1      79.919  81.200  97.503  0.00  0.00     0.199 C 
ATOM     17  C   UNL d   1      79.119  81.256  98.906  0.00  0.00     0.044 C 
ATOM     18  C   UNL d   1      78.799  81.502  96.380  0.00  0.00     0.044 C 
BRANCH  16  19
ATOM     19  C   UNL d   1      81.178  82.299  97.366  0.00  0.00     0.213 C 
ATOM     20  O   UNL d   1      81.770  82.656  98.447  0.00  0.00    -0.646 OA
ATOM     21  O   UNL d   1      81.523  82.674  96.188  0.00  0.00    -0.646 OA
ENDBRANCH  16  19
ENDBRANCH  15  16
ENDBRANCH  14  15
BRANCH  13  22
ATOM     22  C   UNL d   1      83.615  79.166  95.646  0.00  0.00     0.114 A 
ATOM     23  N   UNL d   1      84.171  77.944  95.246  0.00  0.00    -0.223 NA
ATOM     24  C   UNL d   1      85.474  78.054  95.179  0.00  0.00     0.181 A 
ATOM     25  S   UNL d   1      86.138  79.575  95.578  0.00  0.00    -0.052 SA
ATOM     26  N   UNL d   1      86.301  76.952  94.803  0.00  0.00    -0.072 NA
ATOM     27  C   UNL d   1      84.564  80.142  95.869  0.00  0.00     0.059 A 
ENDBRANCH  13  22
ENDBRANCH  11  13
ENDBRANCH   1  10
BRANCH   9  28
ATOM     28  C   UNL d   1      77.290  74.952  91.250  0.00  0.00     0.229 C 
ATOM     29  O   UNL d   1      76.233  74.732  91.911  0.00  0.00    -0.643 OA
ATOM     30  OXT UNL d   1      77.379  75.591  90.151  0.00  0.00    -0.643 OA
ENDBRANCH   9  28
BRANCH   8  31
ATOM     31  C   UNL d   1      78.719  72.611  91.178  0.00  0.00    -0.018 C 
BRANCH  31  32
ATOM     32  N   UNL d   1      78.271  71.590  90.305  0.00  0.00    -0.270 N 
ATOM     33  C   UNL d   1      79.152  70.658  89.922  0.00  0.00     0.088 A 
ATOM     34  C   UNL d   1      78.758  69.671  89.025  0.00  0.00     0.020 A 
ATOM     35  C   UNL d   1      77.456  69.683  88.543  0.00  0.00     0.003 A 
ATOM     36  C   UNL d   1      76.570  70.668  88.959  0.00  0.00     0.020 A 
ATOM     37  C   UNL d   1      77.004  71.640  89.860  0.00  0.00     0.088 A 
ENDBRANCH  31  32
ENDBRANCH   8  31
TORSDOF 9
ENDMDL
MODEL 16
REMARK VINA RESULT:      -6.9      4.132      6.514
REMARK  9 active torsions:
REMARK  status: ('A' for Active; 'I' for Inactive)
REMARK    1  A    between atoms: C_1  and  C_2 
REMARK    2  A    between atoms: C_1  and  O_7 
REMARK    3  A    between atoms: O_7  and  N_8 
REMARK    4  A    between atoms: C_9  and  C_10 
REMARK    5  A    between atoms: C_9  and  C_16 
REMARK       I    between atoms: C_16  and  N_18 
REMARK    6  A    between atoms: CA_19  and  N_18 
REMARK    7  A    between atoms: C_26  and  C_31 
REMARK    8  A    between atoms: CA_27  and  C_28 
REMARK    9  A    between atoms: C_31  and  N_32 
ROOT
ATOM      1  CA  UNL d   1      76.999  70.076  90.236  0.00  0.00     0.230 C 
ATOM      2  C   UNL d   1      76.593  69.229  89.092  0.00  0.00     0.270 C 
ATOM      3  O   UNL d   1      75.767  69.331  88.221  0.00  0.00    -0.269 OA
ATOM      4  N   UNL d   1      77.521  68.317  89.464  0.00  0.00    -0.266 N 
ATOM      5  C   UNL d   1      77.823  68.989  90.613  0.00  0.00     0.105 A 
ATOM      6  S   UNL d   1      78.795  68.524  91.913  0.00  0.00    -0.070 SA
ATOM      7  C   UNL d   1      79.170  67.098  91.118  0.00  0.00     0.047 A 
ATOM      8  C   UNL d   1      78.903  66.443  89.894  0.00  0.00     0.080 A 
ATOM      9  CA  UNL d   1      78.039  67.099  89.084  0.00  0.00     0.140 A 
ENDROOT
BRANCH   1  10
ATOM     10  N   UNL d   1      76.231  70.778  91.087  0.00  0.00    -0.218 NA
ATOM     11  C   UNL d   1      76.921  71.768  91.685  0.00  0.00     0.297 C 
ATOM     12  O   UNL d   1      77.912  72.383  91.295  0.00  0.00    -0.264 OA
BRANCH  11  13
ATOM     13  C   UNL d   1      76.327  72.177  93.031  0.00  0.00     0.183 C 
ATOM     14  N   UNL d   1      75.534  73.206  93.194  0.00  0.00    -0.124 NA
BRANCH  14  15
ATOM     15  O   UNL d   1      75.244  73.874  91.968  0.00  0.00    -0.231 OA
BRANCH  15  16
ATOM     16  C   UNL d   1      73.979  74.619  91.992  0.00  0.00     0.199 C 
ATOM     17  C   UNL d   1      74.097  75.977  91.125  0.00  0.00     0.044 C 
ATOM     18  C   UNL d   1      73.746  75.120  93.510  0.00  0.00     0.044 C 
BRANCH  16  19
ATOM     19  C   UNL d   1      72.735  73.593  91.531  0.00  0.00     0.213 C 
ATOM     20  O   UNL d   1      73.056  72.415  91.138  0.00  0.00    -0.646 OA
ATOM     21  O   UNL d   1      71.530  74.016  91.655  0.00  0.00    -0.646 OA
ENDBRANCH  16  19
ENDBRANCH  15  16
ENDBRANCH  14  15
BRANCH  13  22
ATOM     22  C   UNL d   1      76.563  71.358  94.223  0.00  0.00     0.114 A 
ATOM     23  N   UNL d   1      75.539  70.904  95.063  0.00  0.00    -0.223 NA
ATOM     24  C   UNL d   1      76.054  70.248  96.071  0.00  0.00     0.181 A 
ATOM     25  S   UNL d   1      77.756  70.120  96.115  0.00  0.00    -0.052 SA
ATOM     26  N   UNL d   1      75.235  69.680  97.094  0.00  0.00    -0.072 NA
ATOM     27  C   UNL d   1      77.821  71.013  94.672  0.00  0.00     0.059 A 
ENDBRANCH  13  22
ENDBRANCH  11  13
ENDBRANCH   1  10
BRANCH   9  28
ATOM     28  C   UNL d   1      77.816  66.400  87.736  0.00  0.00     0.229 C 
ATOM     29  O   UNL d   1      76.848  65.585  87.703  0.00  0.00    -0.643 OA
ATOM     30  OXT UNL d   1      78.349  66.987  86.739  0.00  0.00    -0.643 OA
ENDBRANCH   9  28
BRANCH   8  31
ATOM     31  C   UNL d   1      79.551  65.247  89.522  0.00  0.00    -0.018 C 
BRANCH  31  32
ATOM     32  N   UNL d   1      80.226  64.031  89.258  0.00  0.00    -0.270 N 
ATOM     33  C   UNL d   1      81.540  63.974  89.507  0.00  0.00     0.088 A 
ATOM     34  C   UNL d   1      82.244  62.812  89.211  0.00  0.00     0.020 A 
ATOM     35  C   UNL d   1      81.563  61.738  88.655  0.00  0.00     0.003 A 
ATOM     36  C   UNL d   1      80.199  61.833  88.406  0.00  0.00     0.020 A 
ATOM     37  C   UNL d   1      79.530  63.017  88.717  0.00  0.00     0.088 A 
ENDBRANCH  31  32
ENDBRANCH   8  31
TORSDOF 9
ENDMDL
MODEL 17
REMARK VINA RESULT:      -6.8      7.859      9.593
REMARK  9 active torsions:
REMARK  status: ('A' for Active; 'I' for Inactive)
REMARK    1  A    between atoms: C_1  and  C_2 
REMARK    2  A    between atoms: C_1  and  O_7 
REMARK    3  A    between atoms: O_7  and  N_8 
REMARK    4  A    between atoms: C_9  and  C_10 
REMARK    5  A    between atoms: C_9  and  C_16 
REMARK       I    between atoms: C_16  and  N_18 
REMARK    6  A    between atoms: CA_19  and  N_18 
REMARK    7  A    between atoms: C_26  and  C_31 
REMARK    8  A    between atoms: CA_27  and  C_28 
REMARK    9  A    between atoms: C_31  and  N_32 
ROOT
ATOM      1  CA  UNL d   1      79.936  76.566  97.954  0.00  0.00     0.230 C 
ATOM      2  C   UNL d   1      80.611  75.337  98.430  0.00  0.00     0.270 C 
ATOM      3  O   UNL d   1      81.711  75.092  98.854  0.00  0.00    -0.269 OA
ATOM      4  N   UNL d   1      79.480  74.640  98.166  0.00  0.00    -0.266 N 
ATOM      5  C   UNL d   1      78.873  75.711  97.579  0.00  0.00     0.105 A 
ATOM      6  S   UNL d   1      77.419  75.794  96.723  0.00  0.00    -0.070 SA
ATOM      7  C   UNL d   1      77.159  74.164  97.017  0.00  0.00     0.047 A 
ATOM      8  C   UNL d   1      77.766  73.078  97.687  0.00  0.00     0.080 A 
ATOM      9  CA  UNL d   1      78.964  73.366  98.248  0.00  0.00     0.140 A 
ENDROOT
BRANCH   1  10
ATOM     10  N   UNL d   1      80.420  77.557  97.186  0.00  0.00    -0.218 NA
ATOM     11  C   UNL d   1      80.668  78.670  97.902  0.00  0.00     0.297 C 
ATOM     12  O   UNL d   1      80.940  78.795  99.095  0.00  0.00    -0.264 OA
BRANCH  11  13
ATOM     13  C   UNL d   1      80.627  79.941  97.056  0.00  0.00     0.183 C 
ATOM     14  N   UNL d   1      81.688  80.499  96.529  0.00  0.00    -0.124 NA
BRANCH  14  15
ATOM     15  O   UNL d   1      82.881  79.762  96.788  0.00  0.00    -0.231 OA
BRANCH  15  16
ATOM     16  C   UNL d   1      84.060  80.294  96.093  0.00  0.00     0.199 C 
ATOM     17  C   UNL d   1      83.724  80.593  94.541  0.00  0.00     0.044 C 
ATOM     18  C   UNL d   1      85.167  79.119  96.055  0.00  0.00     0.044 C 
BRANCH  16  19
ATOM     19  C   UNL d   1      84.651  81.608  96.952  0.00  0.00     0.213 C 
ATOM     20  O   UNL d   1      84.036  82.726  96.816  0.00  0.00    -0.646 OA
ATOM     21  O   UNL d   1      85.641  81.413  97.744  0.00  0.00    -0.646 OA
ENDBRANCH  16  19
ENDBRANCH  15  16
ENDBRANCH  14  15
BRANCH  13  22
ATOM     22  C   UNL d   1      79.345  80.565  96.720  0.00  0.00     0.114 A 
ATOM     23  N   UNL d   1      79.032  81.049  95.444  0.00  0.00    -0.223 NA
ATOM     24  C   UNL d   1      77.845  81.600  95.460  0.00  0.00     0.181 A 
ATOM     25  S   UNL d   1      77.018  81.599  96.953  0.00  0.00    -0.052 SA
ATOM     26  N   UNL d   1      77.275  82.188  94.290  0.00  0.00    -0.072 NA
ATOM     27  C   UNL d   1      78.347  80.798  97.644  0.00  0.00     0.059 A 
ENDBRANCH  13  22
ENDBRANCH  11  13
ENDBRANCH   1  10
BRANCH   9  28
ATOM     28  C   UNL d   1      79.572  72.190  99.024  0.00  0.00     0.229 C 
ATOM     29  O   UNL d   1      80.489  71.560  98.421  0.00  0.00    -0.643 OA
ATOM     30  OXT UNL d   1      79.378  72.227 100.283  0.00  0.00    -0.643 OA
ENDBRANCH   9  28
BRANCH   8  31
ATOM     31  C   UNL d   1      77.132  71.827  97.824  0.00  0.00    -0.018 C 
BRANCH  31  32
ATOM     32  N   UNL d   1      76.398  70.626  97.984  0.00  0.00    -0.270 N 
ATOM     33  C   UNL d   1      75.379  70.622  98.852  0.00  0.00     0.088 A 
ATOM     34  C   UNL d   1      74.671  69.446  99.070  0.00  0.00     0.020 A 
ATOM     35  C   UNL d   1      75.046  68.298  98.385  0.00  0.00     0.003 A 
ATOM     36  C   UNL d   1      76.111  68.338  97.494  0.00  0.00     0.020 A 
ATOM     37  C   UNL d   1      76.796  69.538  97.303  0.00  0.00     0.088 A 
ENDBRANCH  31  32
ENDBRANCH   8  31
TORSDOF 9
ENDMDL
MODEL 18
REMARK VINA RESULT:      -6.7      5.641      8.970
REMARK  9 active torsions:
REMARK  status: ('A' for Active; 'I' for Inactive)
REMARK    1  A    between atoms: C_1  and  C_2 
REMARK    2  A    between atoms: C_1  and  O_7 
REMARK    3  A    between atoms: O_7  and  N_8 
REMARK    4  A    between atoms: C_9  and  C_10 
REMARK    5  A    between atoms: C_9  and  C_16 
REMARK       I    between atoms: C_16  and  N_18 
REMARK    6  A    between atoms: CA_19  and  N_18 
REMARK    7  A    between atoms: C_26  and  C_31 
REMARK    8  A    between atoms: CA_27  and  C_28 
REMARK    9  A    between atoms: C_31  and  N_32 
ROOT
ATOM      1  CA  UNL d   1      77.153  77.959  92.910  0.00  0.00     0.230 C 
ATOM      2  C   UNL d   1      78.328  77.069  92.778  0.00  0.00     0.270 C 
ATOM      3  O   UNL d   1      78.504  75.972  92.315  0.00  0.00    -0.269 OA
ATOM      4  N   UNL d   1      79.079  78.004  93.405  0.00  0.00    -0.266 N 
ATOM      5  C   UNL d   1      77.999  78.788  93.684  0.00  0.00     0.105 A 
ATOM      6  S   UNL d   1      77.884  80.167  94.651  0.00  0.00    -0.070 SA
ATOM      7  C   UNL d   1      79.532  80.091  94.947  0.00  0.00     0.047 A 
ATOM      8  C   UNL d   1      80.656  79.310  94.596  0.00  0.00     0.080 A 
ATOM      9  CA  UNL d   1      80.373  78.239  93.816  0.00  0.00     0.140 A 
ENDROOT
BRANCH   1  10
ATOM     10  N   UNL d   1      75.886  77.649  93.237  0.00  0.00    -0.218 NA
ATOM     11  C   UNL d   1      74.999  78.209  92.392  0.00  0.00     0.297 C 
ATOM     12  O   UNL d   1      75.135  78.544  91.217  0.00  0.00    -0.264 OA
BRANCH  11  13
ATOM     13  C   UNL d   1      73.622  78.406  93.022  0.00  0.00     0.183 C 
ATOM     14  N   UNL d   1      73.267  79.485  93.674  0.00  0.00    -0.124 NA
BRANCH  14  15
ATOM     15  O   UNL d   1      74.290  80.478  93.686  0.00  0.00    -0.231 OA
BRANCH  15  16
ATOM     16  C   UNL d   1      73.816  81.810  93.290  0.00  0.00     0.199 C 
ATOM     17  C   UNL d   1      74.202  82.911  94.407  0.00  0.00     0.044 C 
ATOM     18  C   UNL d   1      72.201  81.768  93.297  0.00  0.00     0.044 C 
BRANCH  16  19
ATOM     19  C   UNL d   1      74.372  82.149  91.745  0.00  0.00     0.213 C 
ATOM     20  O   UNL d   1      73.497  82.253  90.812  0.00  0.00    -0.646 OA
ATOM     21  O   UNL d   1      75.630  82.348  91.589  0.00  0.00    -0.646 OA
ENDBRANCH  16  19
ENDBRANCH  15  16
ENDBRANCH  14  15
BRANCH  13  22
ATOM     22  C   UNL d   1      72.578  77.392  92.849  0.00  0.00     0.114 A 
ATOM     23  N   UNL d   1      72.722  76.268  92.027  0.00  0.00    -0.223 NA
ATOM     24  C   UNL d   1      71.611  75.577  92.027  0.00  0.00     0.181 A 
ATOM     25  S   UNL d   1      70.327  76.185  92.974  0.00  0.00    -0.052 SA
ATOM     26  N   UNL d   1      71.472  74.379  91.261  0.00  0.00    -0.072 NA
ATOM     27  C   UNL d   1      71.327  77.482  93.425  0.00  0.00     0.059 A 
ENDBRANCH  13  22
ENDBRANCH  11  13
ENDBRANCH   1  10
BRANCH   9  28
ATOM     28  C   UNL d   1      81.616  77.445  93.396  0.00  0.00     0.229 C 
ATOM     29  O   UNL d   1      81.776  76.338  93.987  0.00  0.00    -0.643 OA
ATOM     30  OXT UNL d   1      82.105  77.781  92.268  0.00  0.00    -0.643 OA
ENDBRANCH   9  28
BRANCH   8  31
ATOM     31  C   UNL d   1      81.969  79.669  94.963  0.00  0.00    -0.018 C 
BRANCH  31  32
ATOM     32  N   UNL d   1      83.292  80.092  95.238  0.00  0.00    -0.270 N 
ATOM     33  C   UNL d   1      84.299  79.411  94.677  0.00  0.00     0.088 A 
ATOM     34  C   UNL d   1      85.611  79.768  94.966  0.00  0.00     0.020 A 
ATOM     35  C   UNL d   1      85.844  80.821  95.840  0.00  0.00     0.003 A 
ATOM     36  C   UNL d   1      84.775  81.503  96.407  0.00  0.00     0.020 A 
ATOM     37  C   UNL d   1      83.473  81.113  96.091  0.00  0.00     0.088 A 
ENDBRANCH  31  32
ENDBRANCH   8  31
TORSDOF 9
ENDMDL
MODEL 19
REMARK VINA RESULT:      -6.6      5.889      8.816
REMARK  9 active torsions:
REMARK  status: ('A' for Active; 'I' for Inactive)
REMARK    1  A    between atoms: C_1  and  C_2 
REMARK    2  A    between atoms: C_1  and  O_7 
REMARK    3  A    between atoms: O_7  and  N_8 
REMARK    4  A    between atoms: C_9  and  C_10 
REMARK    5  A    between atoms: C_9  and  C_16 
REMARK       I    between atoms: C_16  and  N_18 
REMARK    6  A    between atoms: CA_19  and  N_18 
REMARK    7  A    between atoms: C_26  and  C_31 
REMARK    8  A    between atoms: CA_27  and  C_28 
REMARK    9  A    between atoms: C_31  and  N_32 
ROOT
ATOM      1  CA  UNL d   1      76.268  68.687  93.212  0.00  0.00     0.230 C 
ATOM      2  C   UNL d   1      75.807  68.818  94.612  0.00  0.00     0.270 C 
ATOM      3  O   UNL d   1      75.264  69.690  95.241  0.00  0.00    -0.269 OA
ATOM      4  N   UNL d   1      76.270  67.570  94.859  0.00  0.00    -0.266 N 
ATOM      5  C   UNL d   1      76.845  67.464  93.626  0.00  0.00     0.105 A 
ATOM      6  S   UNL d   1      77.873  66.273  93.012  0.00  0.00    -0.070 SA
ATOM      7  C   UNL d   1      77.746  65.427  94.453  0.00  0.00     0.047 A 
ATOM      8  C   UNL d   1      77.091  65.516  95.702  0.00  0.00     0.080 A 
ATOM      9  CA  UNL d   1      76.357  66.641  95.871  0.00  0.00     0.140 A 
ENDROOT
BRANCH   1  10
ATOM     10  N   UNL d   1      76.885  69.593  92.433  0.00  0.00    -0.218 NA
ATOM     11  C   UNL d   1      76.032  70.179  91.572  0.00  0.00     0.297 C 
ATOM     12  O   UNL d   1      74.818  70.356  91.665  0.00  0.00    -0.264 OA
BRANCH  11  13
ATOM     13  C   UNL d   1      76.725  70.719  90.324  0.00  0.00     0.183 C 
ATOM     14  N   UNL d   1      77.435  71.819  90.304  0.00  0.00    -0.124 NA
BRANCH  14  15
ATOM     15  O   UNL d   1      77.533  72.431  91.588  0.00  0.00    -0.231 OA
BRANCH  15  16
ATOM     16  C   UNL d   1      77.050  73.818  91.613  0.00  0.00     0.199 C 
ATOM     17  C   UNL d   1      77.699  74.673  90.406  0.00  0.00     0.044 C 
ATOM     18  C   UNL d   1      77.626  74.503  92.957  0.00  0.00     0.044 C 
BRANCH  16  19
ATOM     19  C   UNL d   1      75.374  73.810  91.649  0.00  0.00     0.213 C 
ATOM     20  O   UNL d   1      74.759  74.087  90.558  0.00  0.00    -0.646 OA
ATOM     21  O   UNL d   1      74.797  73.466  92.742  0.00  0.00    -0.646 OA
ENDBRANCH  16  19
ENDBRANCH  15  16
ENDBRANCH  14  15
BRANCH  13  22
ATOM     22  C   UNL d   1      76.690  69.960  89.071  0.00  0.00     0.114 A 
ATOM     23  N   UNL d   1      77.717  69.101  88.660  0.00  0.00    -0.223 NA
ATOM     24  C   UNL d   1      77.433  68.608  87.481  0.00  0.00     0.181 A 
ATOM     25  S   UNL d   1      75.965  69.111  86.771  0.00  0.00    -0.052 SA
ATOM     26  N   UNL d   1      78.316  67.705  86.813  0.00  0.00    -0.072 NA
ATOM     27  C   UNL d   1      75.675  70.068  88.143  0.00  0.00     0.059 A 
ENDBRANCH  13  22
ENDBRANCH  11  13
ENDBRANCH   1  10
BRANCH   9  28
ATOM     28  C   UNL d   1      75.605  66.684  97.208  0.00  0.00     0.229 C 
ATOM     29  O   UNL d   1      76.147  67.383  98.112  0.00  0.00    -0.643 OA
ATOM     30  OXT UNL d   1      74.375  66.356  97.136  0.00  0.00    -0.643 OA
ENDBRANCH   9  28
BRANCH   8  31
ATOM     31  C   UNL d   1      77.137  64.476  96.653  0.00  0.00    -0.018 C 
BRANCH  31  32
ATOM     32  N   UNL d   1      77.088  63.391  97.563  0.00  0.00    -0.270 N 
ATOM     33  C   UNL d   1      76.488  62.264  97.164  0.00  0.00     0.088 A 
ATOM     34  C   UNL d   1      76.377  61.197  98.050  0.00  0.00     0.020 A 
ATOM     35  C   UNL d   1      76.889  61.334  99.333  0.00  0.00     0.003 A 
ATOM     36  C   UNL d   1      77.502  62.521  99.714  0.00  0.00     0.020 A 
ATOM     37  C   UNL d   1      77.593  63.567  98.795  0.00  0.00     0.088 A 
ENDBRANCH  31  32
ENDBRANCH   8  31
TORSDOF 9
ENDMDL
MODEL 20
REMARK VINA RESULT:      -6.6      2.988      4.693
REMARK  9 active torsions:
REMARK  status: ('A' for Active; 'I' for Inactive)
REMARK    1  A    between atoms: C_1  and  C_2 
REMARK    2  A    between atoms: C_1  and  O_7 
REMARK    3  A    between atoms: O_7  and  N_8 
REMARK    4  A    between atoms: C_9  and  C_10 
REMARK    5  A    between atoms: C_9  and  C_16 
REMARK       I    between atoms: C_16  and  N_18 
REMARK    6  A    between atoms: CA_19  and  N_18 
REMARK    7  A    between atoms: C_26  and  C_31 
REMARK    8  A    between atoms: CA_27  and  C_28 
REMARK    9  A    between atoms: C_31  and  N_32 
ROOT
ATOM      1  CA  UNL d   1      75.612  76.119  91.719  0.00  0.00     0.230 C 
ATOM      2  C   UNL d   1      76.902  75.840  91.049  0.00  0.00     0.270 C 
ATOM      3  O   UNL d   1      77.898  76.483  90.840  0.00  0.00    -0.269 OA
ATOM      4  N   UNL d   1      76.463  74.589  90.774  0.00  0.00    -0.266 N 
ATOM      5  C   UNL d   1      75.209  74.849  91.244  0.00  0.00     0.105 A 
ATOM      6  S   UNL d   1      73.807  73.912  91.158  0.00  0.00    -0.070 SA
ATOM      7  C   UNL d   1      74.673  72.694  90.399  0.00  0.00     0.047 A 
ATOM      8  C   UNL d   1      75.991  72.409  89.978  0.00  0.00     0.080 A 
ATOM      9  CA  UNL d   1      76.873  73.418  90.176  0.00  0.00     0.140 A 
ENDROOT
BRANCH   1  10
ATOM     10  N   UNL d   1      74.850  77.226  91.666  0.00  0.00    -0.218 NA
ATOM     11  C   UNL d   1      74.427  77.602  92.888  0.00  0.00     0.297 C 
ATOM     12  O   UNL d   1      74.934  77.406  93.991  0.00  0.00    -0.264 OA
BRANCH  11  13
ATOM     13  C   UNL d   1      73.139  78.421  92.844  0.00  0.00     0.183 C 
ATOM     14  N   UNL d   1      71.960  77.941  93.151  0.00  0.00    -0.124 NA
BRANCH  14  15
ATOM     15  O   UNL d   1      72.017  76.583  93.582  0.00  0.00    -0.231 OA
BRANCH  15  16
ATOM     16  C   UNL d   1      70.707  76.028  93.943  0.00  0.00     0.199 C 
ATOM     17  C   UNL d   1      69.530  77.093  93.640  0.00  0.00     0.044 C 
ATOM     18  C   UNL d   1      70.689  75.844  95.548  0.00  0.00     0.044 C 
BRANCH  16  19
ATOM     19  C   UNL d   1      70.520  74.540  93.195  0.00  0.00     0.213 C 
ATOM     20  O   UNL d   1      69.851  74.509  92.100  0.00  0.00    -0.646 OA
ATOM     21  O   UNL d   1      71.105  73.525  93.719  0.00  0.00    -0.646 OA
ENDBRANCH  16  19
ENDBRANCH  15  16
ENDBRANCH  14  15
BRANCH  13  22
ATOM     22  C   UNL d   1      73.182  79.850  92.522  0.00  0.00     0.114 A 
ATOM     23  N   UNL d   1      74.337  80.508  92.082  0.00  0.00    -0.223 NA
ATOM     24  C   UNL d   1      74.087  81.783  91.929  0.00  0.00     0.181 A 
ATOM     25  S   UNL d   1      72.502  82.304  92.290  0.00  0.00    -0.052 SA
ATOM     26  N   UNL d   1      75.094  82.699  91.496  0.00  0.00    -0.072 NA
ATOM     27  C   UNL d   1      72.108  80.699  92.686  0.00  0.00     0.059 A 
ENDBRANCH  13  22
ENDBRANCH  11  13
ENDBRANCH   1  10
BRANCH   9  28
ATOM     28  C   UNL d   1      78.309  73.061  89.770  0.00  0.00     0.229 C 
ATOM     29  O   UNL d   1      78.690  73.532  88.659  0.00  0.00    -0.643 OA
ATOM     30  OXT UNL d   1      79.056  72.688  90.733  0.00  0.00    -0.643 OA
ENDBRANCH   9  28
BRANCH   8  31
ATOM     31  C   UNL d   1      76.365  71.148  89.470  0.00  0.00    -0.018 C 
BRANCH  31  32
ATOM     32  N   UNL d   1      76.662  69.836  89.028  0.00  0.00    -0.270 N 
ATOM     33  C   UNL d   1      77.308  69.020  89.869  0.00  0.00     0.088 A 
ATOM     34  C   UNL d   1      77.660  67.742  89.448  0.00  0.00     0.020 A 
ATOM     35  C   UNL d   1      77.336  67.347  88.157  0.00  0.00     0.003 A 
ATOM     36  C   UNL d   1      76.668  68.222  87.310  0.00  0.00     0.020 A 
ATOM     37  C   UNL d   1      76.333  69.496  87.771  0.00  0.00     0.088 A 
ENDBRANCH  31  32
ENDBRANCH   8  31
TORSDOF 9
ENDMDL
