MODEL 1
REMARK VINA RESULT:      -7.6      0.000      0.000
REMARK  4 active torsions:
REMARK  status: ('A' for Active; 'I' for Inactive)
REMARK    1  A    between atoms: CA_3  and  C_22 
REMARK    2  A    between atoms: CA_8  and  N_11 
REMARK       I    between atoms: N_11  and  C_12 
REMARK    3  A    between atoms: C_12  and  CA_14 
REMARK    4  A    between atoms: CA_14  and  C_15 
ROOT
ATOM      1  C   UNL d   1      86.193  80.899  94.843  0.00  0.00     0.033 C 
ATOM      2  C   UNL d   1      84.722  81.005  95.157  0.00  0.00     0.007 A 
ATOM      3  CA  UNL d   1      84.088  81.568  96.204  0.00  0.00     0.128 A 
ATOM      4  N   UNL d   1      82.703  81.561  96.274  0.00  0.00    -0.267 N 
ATOM      5  C   UNL d   1      81.840  80.964  95.399  0.00  0.00     0.105 A 
ATOM      6  S   UNL d   1      82.179  80.196  93.928  0.00  0.00    -0.071 SA
ATOM      7  C   UNL d   1      83.823  80.434  94.215  0.00  0.00     0.034 A 
ATOM      8  CA  UNL d   1      80.718  81.482  96.100  0.00  0.00     0.230 C 
ATOM      9  C   UNL d   1      81.710  81.957  97.098  0.00  0.00     0.270 C 
ATOM     10  O   UNL d   1      81.595  82.496  98.169  0.00  0.00    -0.269 OA
ENDROOT
BRANCH   8  11
ATOM     11  N   UNL d   1      79.603  80.795  96.414  0.00  0.00    -0.219 NA
ATOM     12  C   UNL d   1      78.528  81.554  96.656  0.00  0.00     0.289 C 
ATOM     13  O   UNL d   1      78.394  82.771  96.515  0.00  0.00    -0.264 OA
BRANCH  12  14
ATOM     14  CA  UNL d   1      77.370  80.744  97.177  0.00  0.00     0.127 C 
ATOM     15  N   UNL d   1      76.937  79.543  96.510  0.00  0.00    -0.096 NA
BRANCH  14  16
ATOM     16  C   UNL d   1      76.750  81.081  98.433  0.00  0.00     0.014 A 
ATOM     17  C   UNL d   1      77.073  80.605  99.616  0.00  0.00    -0.020 A 
ATOM     18  C   UNL d   1      76.329  80.565 100.983  0.00  0.00     0.052 A 
ATOM     19  C   UNL d   1      74.921  81.213 100.931  0.00  0.00    -0.021 A 
ATOM     20  C   UNL d   1      74.571  81.663  99.871  0.00  0.00    -0.004 A 
ATOM     21  C   UNL d   1      75.424  81.640  98.573  0.00  0.00     0.001 A 
ENDBRANCH  14  16
ENDBRANCH  12  14
ENDBRANCH   8  11
BRANCH   3  22
ATOM     22  C   UNL d   1      84.961  82.212  97.261  0.00  0.00     0.228 C 
ATOM     23  O   UNL d   1      84.993  83.478  97.240  0.00  0.00    -0.643 OA
ATOM     24  OXT UNL d   1      85.574  81.409  98.025  0.00  0.00    -0.643 OA
ENDBRANCH   3  22
TORSDOF 4
ENDMDL
MODEL 2
REMARK VINA RESULT:      -7.0     17.997     20.767
REMARK  4 active torsions:
REMARK  status: ('A' for Active; 'I' for Inactive)
REMARK    1  A    between atoms: CA_3  and  C_22 
REMARK    2  A    between atoms: CA_8  and  N_11 
REMARK       I    between atoms: N_11  and  C_12 
REMARK    3  A    between atoms: C_12  and  CA_14 
REMARK    4  A    between atoms: CA_14  and  C_15 
ROOT
ATOM      1  C   UNL d   1      64.429  91.660  97.286  0.00  0.00     0.033 C 
ATOM      2  C   UNL d   1      63.979  90.838  96.104  0.00  0.00     0.007 A 
ATOM      3  CA  UNL d   1      64.651  90.441  95.007  0.00  0.00     0.128 A 
ATOM      4  N   UNL d   1      64.027  89.662  94.044  0.00  0.00    -0.267 N 
ATOM      5  C   UNL d   1      62.717  89.271  94.025  0.00  0.00     0.105 A 
ATOM      6  S   UNL d   1      61.526  89.490  95.209  0.00  0.00    -0.071 SA
ATOM      7  C   UNL d   1      62.632  90.383  96.117  0.00  0.00     0.034 A 
ATOM      8  CA  UNL d   1      62.929  88.495  92.854  0.00  0.00     0.230 C 
ATOM      9  C   UNL d   1      64.288  89.095  92.847  0.00  0.00     0.270 C 
ATOM     10  O   UNL d   1      65.205  89.028  92.069  0.00  0.00    -0.269 OA
ENDROOT
BRANCH   8  11
ATOM     11  N   UNL d   1      62.118  88.457  91.781  0.00  0.00    -0.219 NA
ATOM     12  C   UNL d   1      61.685  87.234  91.451  0.00  0.00     0.289 C 
ATOM     13  O   UNL d   1      61.832  86.172  92.058  0.00  0.00    -0.264 OA
BRANCH  12  14
ATOM     14  CA  UNL d   1      60.936  87.234  90.144  0.00  0.00     0.127 C 
ATOM     15  N   UNL d   1      61.599  87.538  88.901  0.00  0.00    -0.096 NA
BRANCH  14  16
ATOM     16  C   UNL d   1      59.564  86.798  90.089  0.00  0.00     0.014 A 
ATOM     17  C   UNL d   1      59.036  85.990  89.196  0.00  0.00    -0.020 A 
ATOM     18  C   UNL d   1      57.568  85.697  88.766  0.00  0.00     0.052 A 
ATOM     19  C   UNL d   1      56.524  86.534  89.551  0.00  0.00    -0.021 A 
ATOM     20  C   UNL d   1      56.951  87.293  90.381  0.00  0.00    -0.004 A 
ATOM     21  C   UNL d   1      58.456  87.486  90.714  0.00  0.00     0.001 A 
ENDBRANCH  14  16
ENDBRANCH  12  14
ENDBRANCH   8  11
BRANCH   3  22
ATOM     22  C   UNL d   1      66.099  90.870  94.904  0.00  0.00     0.228 C 
ATOM     23  O   UNL d   1      66.311  91.906  94.208  0.00  0.00    -0.643 OA
ATOM     24  OXT UNL d   1      66.931  90.128  95.507  0.00  0.00    -0.643 OA
ENDBRANCH   3  22
TORSDOF 4
ENDMDL
MODEL 3
REMARK VINA RESULT:      -6.9      1.397      2.076
REMARK  4 active torsions:
REMARK  status: ('A' for Active; 'I' for Inactive)
REMARK    1  A    between atoms: CA_3  and  C_22 
REMARK    2  A    between atoms: CA_8  and  N_11 
REMARK       I    between atoms: N_11  and  C_12 
REMARK    3  A    between atoms: C_12  and  CA_14 
REMARK    4  A    between atoms: CA_14  and  C_15 
ROOT
ATOM      1  C   UNL d   1      85.914  80.796  94.726  0.00  0.00     0.033 C 
ATOM      2  C   UNL d   1      84.477  81.002  95.134  0.00  0.00     0.007 A 
ATOM      3  CA  UNL d   1      83.952  81.591  96.225  0.00  0.00     0.128 A 
ATOM      4  N   UNL d   1      82.576  81.682  96.382  0.00  0.00    -0.267 N 
ATOM      5  C   UNL d   1      81.619  81.163  95.557  0.00  0.00     0.105 A 
ATOM      6  S   UNL d   1      81.810  80.396  94.058  0.00  0.00    -0.071 SA
ATOM      7  C   UNL d   1      83.482  80.512  94.244  0.00  0.00     0.034 A 
ATOM      8  CA  UNL d   1      80.583  81.748  96.332  0.00  0.00     0.230 C 
ATOM      9  C   UNL d   1      81.667  82.135  97.272  0.00  0.00     0.270 C 
ATOM     10  O   UNL d   1      81.659  82.663  98.354  0.00  0.00    -0.269 OA
ENDROOT
BRANCH   8  11
ATOM     11  N   UNL d   1      79.444  81.137  96.709  0.00  0.00    -0.219 NA
ATOM     12  C   UNL d   1      78.511  81.955  97.210  0.00  0.00     0.289 C 
ATOM     13  O   UNL d   1      78.510  83.186  97.263  0.00  0.00    -0.264 OA
BRANCH  12  14
ATOM     14  CA  UNL d   1      77.340  81.196  97.778  0.00  0.00     0.127 C 
ATOM     15  N   UNL d   1      77.470  80.406  98.976  0.00  0.00    -0.096 NA
BRANCH  14  16
ATOM     16  C   UNL d   1      76.026  81.348  97.208  0.00  0.00     0.014 A 
ATOM     17  C   UNL d   1      75.738  81.485  95.932  0.00  0.00    -0.020 A 
ATOM     18  C   UNL d   1      74.478  82.001  95.177  0.00  0.00     0.052 A 
ATOM     19  C   UNL d   1      73.338  82.450  96.129  0.00  0.00    -0.021 A 
ATOM     20  C   UNL d   1      73.547  82.350  97.309  0.00  0.00    -0.004 A 
ATOM     21  C   UNL d   1      74.862  81.808  97.934  0.00  0.00     0.001 A 
ENDBRANCH  14  16
ENDBRANCH  12  14
ENDBRANCH   8  11
BRANCH   3  22
ATOM     22  C   UNL d   1      84.932  82.154  97.232  0.00  0.00     0.228 C 
ATOM     23  O   UNL d   1      84.972  83.418  97.303  0.00  0.00    -0.643 OA
ATOM     24  OXT UNL d   1      85.613  81.296  97.868  0.00  0.00    -0.643 OA
ENDBRANCH   3  22
TORSDOF 4
ENDMDL
MODEL 4
REMARK VINA RESULT:      -6.7      5.627      6.369
REMARK  4 active torsions:
REMARK  status: ('A' for Active; 'I' for Inactive)
REMARK    1  A    between atoms: CA_3  and  C_22 
REMARK    2  A    between atoms: CA_8  and  N_11 
REMARK       I    between atoms: N_11  and  C_12 
REMARK    3  A    between atoms: C_12  and  CA_14 
REMARK    4  A    between atoms: CA_14  and  C_15 
ROOT
ATOM      1  C   UNL d   1      85.973  81.158  94.821  0.00  0.00     0.033 C 
ATOM      2  C   UNL d   1      84.927  80.208  95.348  0.00  0.00     0.007 A 
ATOM      3  CA  UNL d   1      83.749  80.450  95.955  0.00  0.00     0.128 A 
ATOM      4  N   UNL d   1      82.929  79.400  96.342  0.00  0.00    -0.267 N 
ATOM      5  C   UNL d   1      83.203  78.065  96.245  0.00  0.00     0.105 A 
ATOM      6  S   UNL d   1      84.525  77.301  95.510  0.00  0.00    -0.071 SA
ATOM      7  C   UNL d   1      85.188  78.818  95.192  0.00  0.00     0.034 A 
ATOM      8  CA  UNL d   1      81.912  77.729  96.732  0.00  0.00     0.230 C 
ATOM      9  C   UNL d   1      81.752  79.187  96.967  0.00  0.00     0.270 C 
ATOM     10  O   UNL d   1      80.881  79.839  97.482  0.00  0.00    -0.269 OA
ENDROOT
BRANCH   8  11
ATOM     11  N   UNL d   1      81.641  76.785  97.653  0.00  0.00    -0.219 NA
ATOM     12  C   UNL d   1      80.666  75.934  97.311  0.00  0.00     0.289 C 
ATOM     13  O   UNL d   1      80.074  75.829  96.235  0.00  0.00    -0.264 OA
BRANCH  12  14
ATOM     14  CA  UNL d   1      80.287  75.022  98.448  0.00  0.00     0.127 C 
ATOM     15  N   UNL d   1      79.380  75.452  99.482  0.00  0.00    -0.096 NA
BRANCH  14  16
ATOM     16  C   UNL d   1      80.722  73.649  98.457  0.00  0.00     0.014 A 
ATOM     17  C   UNL d   1      80.404  72.735  99.348  0.00  0.00    -0.020 A 
ATOM     18  C   UNL d   1      81.026  71.358  99.724  0.00  0.00     0.052 A 
ATOM     19  C   UNL d   1      82.276  71.001  98.877  0.00  0.00    -0.021 A 
ATOM     20  C   UNL d   1      82.615  71.803  98.048  0.00  0.00    -0.004 A 
ATOM     21  C   UNL d   1      81.894  73.151  97.771  0.00  0.00     0.001 A 
ENDBRANCH  14  16
ENDBRANCH  12  14
ENDBRANCH   8  11
BRANCH   3  22
ATOM     22  C   UNL d   1      83.376  81.902  96.160  0.00  0.00     0.228 C 
ATOM     23  O   UNL d   1      83.840  82.439  97.210  0.00  0.00    -0.643 OA
ATOM     24  OXT UNL d   1      82.626  82.403  95.271  0.00  0.00    -0.643 OA
ENDBRANCH   3  22
TORSDOF 4
ENDMDL
MODEL 5
REMARK VINA RESULT:      -6.6     12.272     14.589
REMARK  4 active torsions:
REMARK  status: ('A' for Active; 'I' for Inactive)
REMARK    1  A    between atoms: CA_3  and  C_22 
REMARK    2  A    between atoms: CA_8  and  N_11 
REMARK       I    between atoms: N_11  and  C_12 
REMARK    3  A    between atoms: C_12  and  CA_14 
REMARK    4  A    between atoms: CA_14  and  C_15 
ROOT
ATOM      1  C   UNL d   1      74.349  77.083  91.649  0.00  0.00     0.033 C 
ATOM      2  C   UNL d   1      74.835  75.701  91.289  0.00  0.00     0.007 A 
ATOM      3  CA  UNL d   1      74.178  74.527  91.238  0.00  0.00     0.128 A 
ATOM      4  N   UNL d   1      74.838  73.368  90.857  0.00  0.00    -0.267 N 
ATOM      5  C   UNL d   1      76.167  73.236  90.571  0.00  0.00     0.105 A 
ATOM      6  S   UNL d   1      77.355  74.439  90.457  0.00  0.00    -0.071 SA
ATOM      7  C   UNL d   1      76.207  75.578  90.936  0.00  0.00     0.034 A 
ATOM      8  CA  UNL d   1      75.991  71.873  90.213  0.00  0.00     0.230 C 
ATOM      9  C   UNL d   1      74.599  72.048  90.701  0.00  0.00     0.270 C 
ATOM     10  O   UNL d   1      73.681  71.282  90.841  0.00  0.00    -0.269 OA
ENDROOT
BRANCH   8  11
ATOM     11  N   UNL d   1      76.793  70.855  90.577  0.00  0.00    -0.219 NA
ATOM     12  C   UNL d   1      77.780  70.584  89.714  0.00  0.00     0.289 C 
ATOM     13  O   UNL d   1      78.118  71.208  88.707  0.00  0.00    -0.264 OA
BRANCH  12  14
ATOM     14  CA  UNL d   1      78.525  69.329  90.085  0.00  0.00     0.127 C 
ATOM     15  N   UNL d   1      79.666  69.368  90.963  0.00  0.00    -0.096 NA
BRANCH  14  16
ATOM     16  C   UNL d   1      78.032  68.039  89.673  0.00  0.00     0.014 A 
ATOM     17  C   UNL d   1      78.319  66.881  90.225  0.00  0.00    -0.020 A 
ATOM     18  C   UNL d   1      78.187  65.409  89.733  0.00  0.00     0.052 A 
ATOM     19  C   UNL d   1      77.605  65.295  88.300  0.00  0.00    -0.021 A 
ATOM     20  C   UNL d   1      77.327  66.324  87.745  0.00  0.00    -0.004 A 
ATOM     21  C   UNL d   1      77.507  67.740  88.359  0.00  0.00     0.001 A 
ENDBRANCH  14  16
ENDBRANCH  12  14
ENDBRANCH   8  11
BRANCH   3  22
ATOM     22  C   UNL d   1      72.706  74.556  91.591  0.00  0.00     0.228 C 
ATOM     23  O   UNL d   1      72.419  74.148  92.755  0.00  0.00    -0.643 OA
ATOM     24  OXT UNL d   1      71.933  74.963  90.673  0.00  0.00    -0.643 OA
ENDBRANCH   3  22
TORSDOF 4
ENDMDL
MODEL 6
REMARK VINA RESULT:      -6.5     18.280     21.217
REMARK  4 active torsions:
REMARK  status: ('A' for Active; 'I' for Inactive)
REMARK    1  A    between atoms: CA_3  and  C_22 
REMARK    2  A    between atoms: CA_8  and  N_11 
REMARK       I    between atoms: N_11  and  C_12 
REMARK    3  A    between atoms: C_12  and  CA_14 
REMARK    4  A    between atoms: CA_14  and  C_15 
ROOT
ATOM      1  C   UNL d   1      66.287  90.491  94.938  0.00  0.00     0.033 C 
ATOM      2  C   UNL d   1      65.230  89.850  94.075  0.00  0.00     0.007 A 
ATOM      3  CA  UNL d   1      63.888  89.954  94.111  0.00  0.00     0.128 A 
ATOM      4  N   UNL d   1      63.104  89.275  93.189  0.00  0.00    -0.267 N 
ATOM      5  C   UNL d   1      63.536  88.405  92.228  0.00  0.00     0.105 A 
ATOM      6  S   UNL d   1      65.123  88.012  91.784  0.00  0.00    -0.071 SA
ATOM      7  C   UNL d   1      65.685  88.991  93.037  0.00  0.00     0.034 A 
ATOM      8  CA  UNL d   1      62.218  88.261  91.718  0.00  0.00     0.230 C 
ATOM      9  C   UNL d   1      61.804  89.077  92.888  0.00  0.00     0.270 C 
ATOM     10  O   UNL d   1      60.726  89.408  93.310  0.00  0.00    -0.269 OA
ENDROOT
BRANCH   8  11
ATOM     11  N   UNL d   1      61.635  87.100  91.366  0.00  0.00    -0.219 NA
ATOM     12  C   UNL d   1      61.190  87.058  90.104  0.00  0.00     0.289 C 
ATOM     13  O   UNL d   1      61.346  87.882  89.202  0.00  0.00    -0.264 OA
BRANCH  12  14
ATOM     14  CA  UNL d   1      60.392  85.811  89.828  0.00  0.00     0.127 C 
ATOM     15  N   UNL d   1      61.011  84.511  89.825  0.00  0.00    -0.096 NA
BRANCH  14  16
ATOM     16  C   UNL d   1      58.959  85.877  89.691  0.00  0.00     0.014 A 
ATOM     17  C   UNL d   1      58.254  85.488  88.651  0.00  0.00    -0.020 A 
ATOM     18  C   UNL d   1      56.803  85.792  88.178  0.00  0.00     0.052 A 
ATOM     19  C   UNL d   1      56.041  86.755  89.127  0.00  0.00    -0.021 A 
ATOM     20  C   UNL d   1      56.639  87.146  90.094  0.00  0.00    -0.004 A 
ATOM     21  C   UNL d   1      58.099  86.756  90.453  0.00  0.00     0.001 A 
ENDBRANCH  14  16
ENDBRANCH  12  14
ENDBRANCH   8  11
BRANCH   3  22
ATOM     22  C   UNL d   1      63.304  90.855  95.179  0.00  0.00     0.228 C 
ATOM     23  O   UNL d   1      63.182  90.329  96.325  0.00  0.00    -0.643 OA
ATOM     24  OXT UNL d   1      62.986  92.019  94.796  0.00  0.00    -0.643 OA
ENDBRANCH   3  22
TORSDOF 4
ENDMDL
MODEL 7
REMARK VINA RESULT:      -6.4     10.819     12.920
REMARK  4 active torsions:
REMARK  status: ('A' for Active; 'I' for Inactive)
REMARK    1  A    between atoms: CA_3  and  C_22 
REMARK    2  A    between atoms: CA_8  and  N_11 
REMARK       I    between atoms: N_11  and  C_12 
REMARK    3  A    between atoms: C_12  and  CA_14 
REMARK    4  A    between atoms: CA_14  and  C_15 
ROOT
ATOM      1  C   UNL d   1      77.632  78.633  93.013  0.00  0.00     0.033 C 
ATOM      2  C   UNL d   1      77.156  77.379  92.322  0.00  0.00     0.007 A 
ATOM      3  CA  UNL d   1      75.916  76.993  91.965  0.00  0.00     0.128 A 
ATOM      4  N   UNL d   1      75.717  75.785  91.312  0.00  0.00    -0.267 N 
ATOM      5  C   UNL d   1      76.663  74.843  91.021  0.00  0.00     0.105 A 
ATOM      6  S   UNL d   1      78.342  74.921  91.233  0.00  0.00    -0.071 SA
ATOM      7  C   UNL d   1      78.151  76.427  91.968  0.00  0.00     0.034 A 
ATOM      8  CA  UNL d   1      75.710  74.051  90.327  0.00  0.00     0.230 C 
ATOM      9  C   UNL d   1      74.710  75.031  90.823  0.00  0.00     0.270 C 
ATOM     10  O   UNL d   1      73.509  75.078  90.751  0.00  0.00    -0.269 OA
ENDROOT
BRANCH   8  11
ATOM     11  N   UNL d   1      75.572  72.716  90.433  0.00  0.00    -0.219 NA
ATOM     12  C   UNL d   1      75.841  72.036  89.312  0.00  0.00     0.289 C 
ATOM     13  O   UNL d   1      76.303  72.451  88.248  0.00  0.00    -0.264 OA
BRANCH  12  14
ATOM     14  CA  UNL d   1      75.494  70.575  89.441  0.00  0.00     0.127 C 
ATOM     15  N   UNL d   1      74.177  70.151  89.840  0.00  0.00    -0.096 NA
BRANCH  14  16
ATOM     16  C   UNL d   1      76.437  69.563  89.038  0.00  0.00     0.014 A 
ATOM     17  C   UNL d   1      76.539  69.020  87.845  0.00  0.00    -0.020 A 
ATOM     18  C   UNL d   1      77.215  67.717  87.326  0.00  0.00     0.052 A 
ATOM     19  C   UNL d   1      77.900  66.895  88.450  0.00  0.00    -0.021 A 
ATOM     20  C   UNL d   1      77.835  67.344  89.564  0.00  0.00    -0.004 A 
ATOM     21  C   UNL d   1      77.125  68.672  89.946  0.00  0.00     0.001 A 
ENDBRANCH  14  16
ENDBRANCH  12  14
ENDBRANCH   8  11
BRANCH   3  22
ATOM     22  C   UNL d   1      74.787  77.946  92.292  0.00  0.00     0.228 C 
ATOM     23  O   UNL d   1      74.245  77.777  93.425  0.00  0.00    -0.643 OA
ATOM     24  OXT UNL d   1      74.500  78.783  91.386  0.00  0.00    -0.643 OA
ENDBRANCH   3  22
TORSDOF 4
ENDMDL
MODEL 8
REMARK VINA RESULT:      -6.4     12.465     13.616
REMARK  4 active torsions:
REMARK  status: ('A' for Active; 'I' for Inactive)
REMARK    1  A    between atoms: CA_3  and  C_22 
REMARK    2  A    between atoms: CA_8  and  N_11 
REMARK       I    between atoms: N_11  and  C_12 
REMARK    3  A    between atoms: C_12  and  CA_14 
REMARK    4  A    between atoms: CA_14  and  C_15 
ROOT
ATOM      1  C   UNL d   1      78.148  65.978  87.763  0.00  0.00     0.033 C 
ATOM      2  C   UNL d   1      77.603  67.266  88.329  0.00  0.00     0.007 A 
ATOM      3  CA  UNL d   1      77.838  67.873  89.508  0.00  0.00     0.128 A 
ATOM      4  N   UNL d   1      77.228  69.082  89.810  0.00  0.00    -0.267 N 
ATOM      5  C   UNL d   1      76.310  69.750  89.051  0.00  0.00     0.105 A 
ATOM      6  S   UNL d   1      75.760  69.394  87.489  0.00  0.00    -0.071 SA
ATOM      7  C   UNL d   1      76.693  67.989  87.511  0.00  0.00     0.034 A 
ATOM      8  CA  UNL d   1      76.290  70.834  89.969  0.00  0.00     0.230 C 
ATOM      9  C   UNL d   1      77.155  69.976  90.818  0.00  0.00     0.270 C 
ATOM     10  O   UNL d   1      77.595  70.110  91.931  0.00  0.00    -0.269 OA
ENDROOT
BRANCH   8  11
ATOM     11  N   UNL d   1      75.187  71.466  90.413  0.00  0.00    -0.219 NA
ATOM     12  C   UNL d   1      75.220  72.799  90.294  0.00  0.00     0.289 C 
ATOM     13  O   UNL d   1      76.060  73.504  89.733  0.00  0.00    -0.264 OA
BRANCH  12  14
ATOM     14  CA  UNL d   1      74.045  73.455  90.971  0.00  0.00     0.127 C 
ATOM     15  N   UNL d   1      72.881  72.696  91.352  0.00  0.00    -0.096 NA
BRANCH  14  16
ATOM     16  C   UNL d   1      74.114  74.836  91.375  0.00  0.00     0.014 A 
ATOM     17  C   UNL d   1      74.713  75.309  92.445  0.00  0.00    -0.020 A 
ATOM     18  C   UNL d   1      74.601  76.656  93.217  0.00  0.00     0.052 A 
ATOM     19  C   UNL d   1      73.566  77.631  92.596  0.00  0.00    -0.021 A 
ATOM     20  C   UNL d   1      72.984  77.250  91.615  0.00  0.00    -0.004 A 
ATOM     21  C   UNL d   1      73.198  75.868  90.938  0.00  0.00     0.001 A 
ENDBRANCH  14  16
ENDBRANCH  12  14
ENDBRANCH   8  11
BRANCH   3  22
ATOM     22  C   UNL d   1      78.803  67.182  90.448  0.00  0.00     0.228 C 
ATOM     23  O   UNL d   1      78.277  66.371  91.267  0.00  0.00    -0.643 OA
ATOM     24  OXT UNL d   1      80.019  67.513  90.321  0.00  0.00    -0.643 OA
ENDBRANCH   3  22
TORSDOF 4
ENDMDL
MODEL 9
REMARK VINA RESULT:      -6.4     10.383     12.445
REMARK  4 active torsions:
REMARK  status: ('A' for Active; 'I' for Inactive)
REMARK    1  A    between atoms: CA_3  and  C_22 
REMARK    2  A    between atoms: CA_8  and  N_11 
REMARK       I    between atoms: N_11  and  C_12 
REMARK    3  A    between atoms: C_12  and  CA_14 
REMARK    4  A    between atoms: CA_14  and  C_15 
ROOT
ATOM      1  C   UNL d   1      78.600  71.059  98.491  0.00  0.00     0.033 C 
ATOM      2  C   UNL d   1      77.161  71.163  98.929  0.00  0.00     0.007 A 
ATOM      3  CA  UNL d   1      76.470  72.207  99.427  0.00  0.00     0.128 A 
ATOM      4  N   UNL d   1      75.127  72.072  99.748  0.00  0.00    -0.267 N 
ATOM      5  C   UNL d   1      74.378  70.931  99.685  0.00  0.00     0.105 A 
ATOM      6  S   UNL d   1      74.807  69.410  99.077  0.00  0.00    -0.071 SA
ATOM      7  C   UNL d   1      76.368  69.989  98.807  0.00  0.00     0.034 A 
ATOM      8  CA  UNL d   1      73.205  71.640 100.058  0.00  0.00     0.230 C 
ATOM      9  C   UNL d   1      74.113  72.797 100.267  0.00  0.00     0.270 C 
ATOM     10  O   UNL d   1      73.934  73.907 100.698  0.00  0.00    -0.269 OA
ENDROOT
BRANCH   8  11
ATOM     11  N   UNL d   1      72.292  71.228 100.958  0.00  0.00    -0.219 NA
ATOM     12  C   UNL d   1      71.025  71.271 100.528  0.00  0.00     0.289 C 
ATOM     13  O   UNL d   1      70.600  71.519  99.399  0.00  0.00    -0.264 OA
BRANCH  12  14
ATOM     14  CA  UNL d   1      70.044  70.975 101.632  0.00  0.00     0.127 C 
ATOM     15  N   UNL d   1      69.664  69.623 101.953  0.00  0.00    -0.096 NA
BRANCH  14  16
ATOM     16  C   UNL d   1      69.563  72.032 102.484  0.00  0.00     0.014 A 
ATOM     17  C   UNL d   1      69.682  73.324 102.269  0.00  0.00    -0.020 A 
ATOM     18  C   UNL d   1      69.560  74.570 103.194  0.00  0.00     0.052 A 
ATOM     19  C   UNL d   1      69.238  74.206 104.668  0.00  0.00    -0.021 A 
ATOM     20  C   UNL d   1      69.120  73.037 104.923  0.00  0.00    -0.004 A 
ATOM     21  C   UNL d   1      69.266  71.885 103.892  0.00  0.00     0.001 A 
ENDBRANCH  14  16
ENDBRANCH  12  14
ENDBRANCH   8  11
BRANCH   3  22
ATOM     22  C   UNL d   1      77.227  73.508  99.587  0.00  0.00     0.228 C 
ATOM     23  O   UNL d   1      77.926  73.604 100.640  0.00  0.00    -0.643 OA
ATOM     24  OXT UNL d   1      77.054  74.357  98.663  0.00  0.00    -0.643 OA
ENDBRANCH   3  22
TORSDOF 4
ENDMDL
MODEL 10
REMARK VINA RESULT:      -6.4     11.317     12.570
REMARK  4 active torsions:
REMARK  status: ('A' for Active; 'I' for Inactive)
REMARK    1  A    between atoms: CA_3  and  C_22 
REMARK    2  A    between atoms: CA_8  and  N_11 
REMARK       I    between atoms: N_11  and  C_12 
REMARK    3  A    between atoms: C_12  and  CA_14 
REMARK    4  A    between atoms: CA_14  and  C_15 
ROOT
ATOM      1  C   UNL d   1      79.278  70.393  89.687  0.00  0.00     0.033 C 
ATOM      2  C   UNL d   1      78.093  71.270  90.008  0.00  0.00     0.007 A 
ATOM      3  CA  UNL d   1      76.797  70.956  90.196  0.00  0.00     0.128 A 
ATOM      4  N   UNL d   1      75.872  71.944  90.505  0.00  0.00    -0.267 N 
ATOM      5  C   UNL d   1      76.103  73.288  90.584  0.00  0.00     0.105 A 
ATOM      6  S   UNL d   1      77.572  74.124  90.476  0.00  0.00    -0.071 SA
ATOM      7  C   UNL d   1      78.346  72.662  90.148  0.00  0.00     0.034 A 
ATOM      8  CA  UNL d   1      74.768  73.527  91.006  0.00  0.00     0.230 C 
ATOM      9  C   UNL d   1      74.550  72.083  90.735  0.00  0.00     0.270 C 
ATOM     10  O   UNL d   1      73.567  71.387  90.763  0.00  0.00    -0.269 OA
ENDROOT
BRANCH   8  11
ATOM     11  N   UNL d   1      73.964  74.507  90.552  0.00  0.00    -0.219 NA
ATOM     12  C   UNL d   1      73.217  75.098  91.492  0.00  0.00     0.289 C 
ATOM     13  O   UNL d   1      73.252  74.948  92.715  0.00  0.00    -0.264 OA
BRANCH  12  14
ATOM     14  CA  UNL d   1      72.214  76.053  90.899  0.00  0.00     0.127 C 
ATOM     15  N   UNL d   1      72.534  76.852  89.744  0.00  0.00    -0.096 NA
BRANCH  14  16
ATOM     16  C   UNL d   1      70.862  76.092  91.395  0.00  0.00     0.014 A 
ATOM     17  C   UNL d   1      70.096  75.056  91.658  0.00  0.00    -0.020 A 
ATOM     18  C   UNL d   1      68.559  74.893  91.846  0.00  0.00     0.052 A 
ATOM     19  C   UNL d   1      67.780  76.225  91.683  0.00  0.00    -0.021 A 
ATOM     20  C   UNL d   1      68.430  77.206  91.438  0.00  0.00    -0.004 A 
ATOM     21  C   UNL d   1      69.975  77.229  91.279  0.00  0.00     0.001 A 
ENDBRANCH  14  16
ENDBRANCH  12  14
ENDBRANCH   8  11
BRANCH   3  22
ATOM     22  C   UNL d   1      76.426  69.494  90.076  0.00  0.00     0.228 C 
ATOM     23  O   UNL d   1      76.404  68.848  91.165  0.00  0.00    -0.643 OA
ATOM     24  OXT UNL d   1      76.206  69.082  88.898  0.00  0.00    -0.643 OA
ENDBRANCH   3  22
TORSDOF 4
ENDMDL
MODEL 11
REMARK VINA RESULT:      -6.4      2.652      8.173
REMARK  4 active torsions:
REMARK  status: ('A' for Active; 'I' for Inactive)
REMARK    1  A    between atoms: CA_3  and  C_22 
REMARK    2  A    between atoms: CA_8  and  N_11 
REMARK       I    between atoms: N_11  and  C_12 
REMARK    3  A    between atoms: C_12  and  CA_14 
REMARK    4  A    between atoms: CA_14  and  C_15 
ROOT
ATOM      1  C   UNL d   1      73.553  82.149  97.162  0.00  0.00     0.033 C 
ATOM      2  C   UNL d   1      75.022  81.806  97.162  0.00  0.00     0.007 A 
ATOM      3  CA  UNL d   1      75.762  81.125  98.057  0.00  0.00     0.128 A 
ATOM      4  N   UNL d   1      77.115  80.913  97.834  0.00  0.00    -0.267 N 
ATOM      5  C   UNL d   1      77.861  81.390  96.793  0.00  0.00     0.105 A 
ATOM      6  S   UNL d   1      77.348  82.239  95.420  0.00  0.00    -0.071 SA
ATOM      7  C   UNL d   1      75.783  82.254  96.047  0.00  0.00     0.034 A 
ATOM      8  CA  UNL d   1      79.008  80.686  97.246  0.00  0.00     0.230 C 
ATOM      9  C   UNL d   1      78.183  80.346  98.434  0.00  0.00     0.270 C 
ATOM     10  O   UNL d   1      78.432  79.769  99.461  0.00  0.00    -0.269 OA
ENDROOT
BRANCH   8  11
ATOM     11  N   UNL d   1      80.257  81.182  97.314  0.00  0.00    -0.219 NA
ATOM     12  C   UNL d   1      81.034  80.886  96.265  0.00  0.00     0.289 C 
ATOM     13  O   UNL d   1      80.728  80.331  95.209  0.00  0.00    -0.264 OA
BRANCH  12  14
ATOM     14  CA  UNL d   1      82.463  81.310  96.483  0.00  0.00     0.127 C 
ATOM     15  N   UNL d   1      82.792  82.415  97.347  0.00  0.00    -0.096 NA
BRANCH  14  16
ATOM     16  C   UNL d   1      83.546  80.534  95.936  0.00  0.00     0.014 A 
ATOM     17  C   UNL d   1      83.736  79.242  96.087  0.00  0.00    -0.020 A 
ATOM     18  C   UNL d   1      84.977  78.321  95.892  0.00  0.00     0.052 A 
ATOM     19  C   UNL d   1      86.242  79.092  95.431  0.00  0.00    -0.021 A 
ATOM     20  C   UNL d   1      86.127  80.279  95.279  0.00  0.00    -0.004 A 
ATOM     21  C   UNL d   1      84.816  81.080  95.508  0.00  0.00     0.001 A 
ENDBRANCH  14  16
ENDBRANCH  12  14
ENDBRANCH   8  11
BRANCH   3  22
ATOM     22  C   UNL d   1      75.039  80.599  99.278  0.00  0.00     0.228 C 
ATOM     23  O   UNL d   1      75.043  81.368 100.285  0.00  0.00    -0.643 OA
ATOM     24  OXT UNL d   1      74.536  79.442  99.157  0.00  0.00    -0.643 OA
ENDBRANCH   3  22
TORSDOF 4
ENDMDL
MODEL 12
REMARK VINA RESULT:      -6.2     11.503     13.453
REMARK  4 active torsions:
REMARK  status: ('A' for Active; 'I' for Inactive)
REMARK    1  A    between atoms: CA_3  and  C_22 
REMARK    2  A    between atoms: CA_8  and  N_11 
REMARK       I    between atoms: N_11  and  C_12 
REMARK    3  A    between atoms: C_12  and  CA_14 
REMARK    4  A    between atoms: CA_14  and  C_15 
ROOT
ATOM      1  C   UNL d   1      77.615  66.721  87.877  0.00  0.00     0.033 C 
ATOM      2  C   UNL d   1      77.769  68.132  88.389  0.00  0.00     0.007 A 
ATOM      3  CA  UNL d   1      77.159  69.272  88.012  0.00  0.00     0.128 A 
ATOM      4  N   UNL d   1      77.450  70.469  88.649  0.00  0.00    -0.267 N 
ATOM      5  C   UNL d   1      78.382  70.673  89.627  0.00  0.00     0.105 A 
ATOM      6  S   UNL d   1      79.337  69.534  90.440  0.00  0.00    -0.071 SA
ATOM      7  C   UNL d   1      78.697  68.331  89.447  0.00  0.00     0.034 A 
ATOM      8  CA  UNL d   1      77.990  72.031  89.766  0.00  0.00     0.230 C 
ATOM      9  C   UNL d   1      77.122  71.777  88.588  0.00  0.00     0.270 C 
ATOM     10  O   UNL d   1      76.417  72.494  87.924  0.00  0.00    -0.269 OA
ENDROOT
BRANCH   8  11
ATOM     11  N   UNL d   1      78.824  73.082  89.873  0.00  0.00    -0.219 NA
ATOM     12  C   UNL d   1      78.389  74.061  90.676  0.00  0.00     0.289 C 
ATOM     13  O   UNL d   1      77.399  74.077  91.410  0.00  0.00    -0.264 OA
BRANCH  12  14
ATOM     14  CA  UNL d   1      79.274  75.279  90.611  0.00  0.00     0.127 C 
ATOM     15  N   UNL d   1      79.182  76.213  89.519  0.00  0.00    -0.096 NA
BRANCH  14  16
ATOM     16  C   UNL d   1      80.143  75.609  91.712  0.00  0.00     0.014 A 
ATOM     17  C   UNL d   1      80.019  76.636  92.525  0.00  0.00    -0.020 A 
ATOM     18  C   UNL d   1      81.005  77.341  93.502  0.00  0.00     0.052 A 
ATOM     19  C   UNL d   1      82.419  76.702  93.508  0.00  0.00    -0.021 A 
ATOM     20  C   UNL d   1      82.590  75.760  92.781  0.00  0.00    -0.004 A 
ATOM     21  C   UNL d   1      81.507  75.149  91.851  0.00  0.00     0.001 A 
ENDBRANCH  14  16
ENDBRANCH  12  14
ENDBRANCH   8  11
BRANCH   3  22
ATOM     22  C   UNL d   1      76.143  69.162  86.895  0.00  0.00     0.228 C 
ATOM     23  O   UNL d   1      74.933  69.112  87.264  0.00  0.00    -0.643 OA
ATOM     24  OXT UNL d   1      76.625  69.110  85.724  0.00  0.00    -0.643 OA
ENDBRANCH   3  22
TORSDOF 4
ENDMDL
MODEL 13
REMARK VINA RESULT:      -6.2     12.848     14.059
REMARK  4 active torsions:
REMARK  status: ('A' for Active; 'I' for Inactive)
REMARK    1  A    between atoms: CA_3  and  C_22 
REMARK    2  A    between atoms: CA_8  and  N_11 
REMARK       I    between atoms: N_11  and  C_12 
REMARK    3  A    between atoms: C_12  and  CA_14 
REMARK    4  A    between atoms: CA_14  and  C_15 
ROOT
ATOM      1  C   UNL d   1      79.639  66.171  89.758  0.00  0.00     0.033 C 
ATOM      2  C   UNL d   1      78.690  67.328  89.948  0.00  0.00     0.007 A 
ATOM      3  CA  UNL d   1      77.821  67.899  89.092  0.00  0.00     0.128 A 
ATOM      4  N   UNL d   1      77.025  68.959  89.501  0.00  0.00    -0.267 N 
ATOM      5  C   UNL d   1      77.051  69.585  90.714  0.00  0.00     0.105 A 
ATOM      6  S   UNL d   1      77.936  69.181  92.101  0.00  0.00    -0.071 SA
ATOM      7  C   UNL d   1      78.678  67.941  91.231  0.00  0.00     0.034 A 
ATOM      8  CA  UNL d   1      75.952  70.409  90.352  0.00  0.00     0.230 C 
ATOM      9  C   UNL d   1      76.094  69.801  89.004  0.00  0.00     0.270 C 
ATOM     10  O   UNL d   1      75.543  70.008  87.954  0.00  0.00    -0.269 OA
ENDROOT
BRANCH   8  11
ATOM     11  N   UNL d   1      75.856  71.733  90.574  0.00  0.00    -0.219 NA
ATOM     12  C   UNL d   1      74.607  72.182  90.744  0.00  0.00     0.289 C 
ATOM     13  O   UNL d   1      73.561  71.539  90.841  0.00  0.00    -0.264 OA
BRANCH  12  14
ATOM     14  CA  UNL d   1      74.551  73.687  90.805  0.00  0.00     0.127 C 
ATOM     15  N   UNL d   1      75.503  74.500  90.093  0.00  0.00    -0.096 NA
BRANCH  14  16
ATOM     16  C   UNL d   1      73.460  74.350  91.472  0.00  0.00     0.014 A 
ATOM     17  C   UNL d   1      73.237  74.378  92.768  0.00  0.00    -0.020 A 
ATOM     18  C   UNL d   1      71.980  74.714  93.622  0.00  0.00     0.052 A 
ATOM     19  C   UNL d   1      70.741  75.084  92.764  0.00  0.00    -0.021 A 
ATOM     20  C   UNL d   1      70.886  75.073  91.570  0.00  0.00    -0.004 A 
ATOM     21  C   UNL d   1      72.212  74.719  90.842  0.00  0.00     0.001 A 
ENDBRANCH  14  16
ENDBRANCH  12  14
ENDBRANCH   8  11
BRANCH   3  22
ATOM     22  C   UNL d   1      77.754  67.311  87.699  0.00  0.00     0.228 C 
ATOM     23  O   UNL d   1      78.347  67.977  86.799  0.00  0.00    -0.643 OA
ATOM     24  OXT UNL d   1      77.094  66.235  87.593  0.00  0.00    -0.643 OA
ENDBRANCH   3  22
TORSDOF 4
ENDMDL
MODEL 14
REMARK VINA RESULT:      -6.1     16.442     19.175
REMARK  4 active torsions:
REMARK  status: ('A' for Active; 'I' for Inactive)
REMARK    1  A    between atoms: CA_3  and  C_22 
REMARK    2  A    between atoms: CA_8  and  N_11 
REMARK       I    between atoms: N_11  and  C_12 
REMARK    3  A    between atoms: C_12  and  CA_14 
REMARK    4  A    between atoms: CA_14  and  C_15 
ROOT
ATOM      1  C   UNL d   1      62.565  71.213  97.418  0.00  0.00     0.033 C 
ATOM      2  C   UNL d   1      62.859  71.856  96.086  0.00  0.00     0.007 A 
ATOM      3  CA  UNL d   1      63.993  71.887  95.360  0.00  0.00     0.128 A 
ATOM      4  N   UNL d   1      64.025  72.535  94.133  0.00  0.00    -0.267 N 
ATOM      5  C   UNL d   1      63.013  73.248  93.555  0.00  0.00     0.105 A 
ATOM      6  S   UNL d   1      61.411  73.434  94.074  0.00  0.00    -0.071 SA
ATOM      7  C   UNL d   1      61.787  72.548  95.459  0.00  0.00     0.034 A 
ATOM      8  CA  UNL d   1      63.787  73.462  92.383  0.00  0.00     0.230 C 
ATOM      9  C   UNL d   1      64.894  72.823  93.141  0.00  0.00     0.270 C 
ATOM     10  O   UNL d   1      66.058  72.646  92.890  0.00  0.00    -0.269 OA
ENDROOT
BRANCH   8  11
ATOM     11  N   UNL d   1      63.904  74.629  91.722  0.00  0.00    -0.219 NA
ATOM     12  C   UNL d   1      64.106  74.507  90.405  0.00  0.00     0.289 C 
ATOM     13  O   UNL d   1      64.081  73.490  89.710  0.00  0.00    -0.264 OA
BRANCH  12  14
ATOM     14  CA  UNL d   1      64.409  75.832  89.755  0.00  0.00     0.127 C 
ATOM     15  N   UNL d   1      63.723  76.253  88.560  0.00  0.00    -0.096 NA
BRANCH  14  16
ATOM     16  C   UNL d   1      65.298  76.770  90.390  0.00  0.00     0.014 A 
ATOM     17  C   UNL d   1      65.258  78.081  90.284  0.00  0.00    -0.020 A 
ATOM     18  C   UNL d   1      66.296  79.202  90.581  0.00  0.00     0.052 A 
ATOM     19  C   UNL d   1      67.652  78.656  91.103  0.00  0.00    -0.021 A 
ATOM     20  C   UNL d   1      67.747  77.463  91.217  0.00  0.00    -0.004 A 
ATOM     21  C   UNL d   1      66.619  76.447  90.885  0.00  0.00     0.001 A 
ENDBRANCH  14  16
ENDBRANCH  12  14
ENDBRANCH   8  11
BRANCH   3  22
ATOM     22  C   UNL d   1      65.193  71.169  95.941  0.00  0.00     0.228 C 
ATOM     23  O   UNL d   1      66.014  71.904  96.565  0.00  0.00    -0.643 OA
ATOM     24  OXT UNL d   1      65.245  69.924  95.714  0.00  0.00    -0.643 OA
ENDBRANCH   3  22
TORSDOF 4
ENDMDL
MODEL 15
REMARK VINA RESULT:      -6.1     12.974     16.242
REMARK  4 active torsions:
REMARK  status: ('A' for Active; 'I' for Inactive)
REMARK    1  A    between atoms: CA_3  and  C_22 
REMARK    2  A    between atoms: CA_8  and  N_11 
REMARK       I    between atoms: N_11  and  C_12 
REMARK    3  A    between atoms: C_12  and  CA_14 
REMARK    4  A    between atoms: CA_14  and  C_15 
ROOT
ATOM      1  C   UNL d   1      64.035  90.111  91.049  0.00  0.00     0.033 C 
ATOM      2  C   UNL d   1      64.739  89.432  92.198  0.00  0.00     0.007 A 
ATOM      3  CA  UNL d   1      65.086  89.899  93.412  0.00  0.00     0.128 A 
ATOM      4  N   UNL d   1      65.721  89.073  94.328  0.00  0.00    -0.267 N 
ATOM      5  C   UNL d   1      66.129  87.784  94.127  0.00  0.00     0.105 A 
ATOM      6  S   UNL d   1      65.863  86.782  92.788  0.00  0.00    -0.071 SA
ATOM      7  C   UNL d   1      65.110  88.072  92.006  0.00  0.00     0.034 A 
ATOM      8  CA  UNL d   1      66.554  87.671  95.478  0.00  0.00     0.230 C 
ATOM      9  C   UNL d   1      66.243  89.121  95.572  0.00  0.00     0.270 C 
ATOM     10  O   UNL d   1      66.395  89.932  96.449  0.00  0.00    -0.269 OA
ENDROOT
BRANCH   8  11
ATOM     11  N   UNL d   1      67.710  87.121  95.894  0.00  0.00    -0.219 NA
ATOM     12  C   UNL d   1      67.587  86.271  96.920  0.00  0.00     0.289 C 
ATOM     13  O   UNL d   1      66.560  85.842  97.449  0.00  0.00    -0.264 OA
BRANCH  12  14
ATOM     14  CA  UNL d   1      68.925  85.833  97.454  0.00  0.00     0.127 C 
ATOM     15  N   UNL d   1      69.731  84.866  96.753  0.00  0.00    -0.096 NA
BRANCH  14  16
ATOM     16  C   UNL d   1      69.492  86.471  98.615  0.00  0.00     0.014 A 
ATOM     17  C   UNL d   1      70.080  87.647  98.651  0.00  0.00    -0.020 A 
ATOM     18  C   UNL d   1      71.034  88.326  99.677  0.00  0.00     0.052 A 
ATOM     19  C   UNL d   1      71.359  87.424 100.897  0.00  0.00    -0.021 A 
ATOM     20  C   UNL d   1      70.851  86.334 100.915  0.00  0.00    -0.004 A 
ATOM     21  C   UNL d   1      69.904  85.779  99.816  0.00  0.00     0.001 A 
ENDBRANCH  14  16
ENDBRANCH  12  14
ENDBRANCH   8  11
BRANCH   3  22
ATOM     22  C   UNL d   1      64.725  91.337  93.716  0.00  0.00     0.228 C 
ATOM     23  O   UNL d   1      63.593  91.511  94.257  0.00  0.00    -0.643 OA
ATOM     24  OXT UNL d   1      65.587  92.199  93.371  0.00  0.00    -0.643 OA
ENDBRANCH   3  22
TORSDOF 4
ENDMDL
MODEL 16
REMARK VINA RESULT:      -6.1     12.992     14.017
REMARK  4 active torsions:
REMARK  status: ('A' for Active; 'I' for Inactive)
REMARK    1  A    between atoms: CA_3  and  C_22 
REMARK    2  A    between atoms: CA_8  and  N_11 
REMARK       I    between atoms: N_11  and  C_12 
REMARK    3  A    between atoms: C_12  and  CA_14 
REMARK    4  A    between atoms: CA_14  and  C_15 
ROOT
ATOM      1  C   UNL d   1      77.970  67.838  87.814  0.00  0.00     0.033 C 
ATOM      2  C   UNL d   1      77.438  68.192  89.180  0.00  0.00     0.007 A 
ATOM      3  CA  UNL d   1      76.529  69.113  89.554  0.00  0.00     0.128 A 
ATOM      4  N   UNL d   1      76.177  69.250  90.889  0.00  0.00    -0.267 N 
ATOM      5  C   UNL d   1      76.710  68.579  91.953  0.00  0.00     0.105 A 
ATOM      6  S   UNL d   1      77.829  67.307  91.955  0.00  0.00    -0.071 SA
ATOM      7  C   UNL d   1      77.952  67.451  90.279  0.00  0.00     0.034 A 
ATOM      8  CA  UNL d   1      75.795  69.197  92.846  0.00  0.00     0.230 C 
ATOM      9  C   UNL d   1      75.383  70.010  91.673  0.00  0.00     0.270 C 
ATOM     10  O   UNL d   1      74.621  70.934  91.549  0.00  0.00    -0.269 OA
ENDROOT
BRANCH   8  11
ATOM     11  N   UNL d   1      76.102  69.715  94.050  0.00  0.00    -0.219 NA
ATOM     12  C   UNL d   1      75.432  69.177  95.077  0.00  0.00     0.289 C 
ATOM     13  O   UNL d   1      74.672  68.207  95.081  0.00  0.00    -0.264 OA
BRANCH  12  14
ATOM     14  CA  UNL d   1      75.683  69.918  96.364  0.00  0.00     0.127 C 
ATOM     15  N   UNL d   1      76.842  70.756  96.532  0.00  0.00    -0.096 NA
BRANCH  14  16
ATOM     16  C   UNL d   1      74.697  69.910  97.415  0.00  0.00     0.014 A 
ATOM     17  C   UNL d   1      73.504  70.462  97.371  0.00  0.00    -0.020 A 
ATOM     18  C   UNL d   1      72.477  70.861  98.471  0.00  0.00     0.052 A 
ATOM     19  C   UNL d   1      72.971  70.547  99.908  0.00  0.00    -0.021 A 
ATOM     20  C   UNL d   1      74.059  70.044 100.009  0.00  0.00    -0.004 A 
ATOM     21  C   UNL d   1      74.987  69.691  98.815  0.00  0.00     0.001 A 
ENDBRANCH  14  16
ENDBRANCH  12  14
ENDBRANCH   8  11
BRANCH   3  22
ATOM     22  C   UNL d   1      75.916  69.950  88.452  0.00  0.00     0.228 C 
ATOM     23  O   UNL d   1      76.453  71.083  88.268  0.00  0.00    -0.643 OA
ATOM     24  OXT UNL d   1      74.924  69.430  87.861  0.00  0.00    -0.643 OA
ENDBRANCH   3  22
TORSDOF 4
ENDMDL
MODEL 17
REMARK VINA RESULT:      -6.1     12.846     14.202
REMARK  4 active torsions:
REMARK  status: ('A' for Active; 'I' for Inactive)
REMARK    1  A    between atoms: CA_3  and  C_22 
REMARK    2  A    between atoms: CA_8  and  N_11 
REMARK       I    between atoms: N_11  and  C_12 
REMARK    3  A    between atoms: C_12  and  CA_14 
REMARK    4  A    between atoms: CA_14  and  C_15 
ROOT
ATOM      1  C   UNL d   1      78.092  67.946  87.741  0.00  0.00     0.033 C 
ATOM      2  C   UNL d   1      77.484  68.293  89.077  0.00  0.00     0.007 A 
ATOM      3  CA  UNL d   1      76.497  69.153  89.393  0.00  0.00     0.128 A 
ATOM      4  N   UNL d   1      76.084  69.297  90.709  0.00  0.00    -0.267 N 
ATOM      5  C   UNL d   1      76.624  68.693  91.810  0.00  0.00     0.105 A 
ATOM      6  S   UNL d   1      77.831  67.508  91.887  0.00  0.00    -0.071 SA
ATOM      7  C   UNL d   1      78.008  67.619  90.214  0.00  0.00     0.034 A 
ATOM      8  CA  UNL d   1      75.632  69.263  92.652  0.00  0.00     0.230 C 
ATOM      9  C   UNL d   1      75.207  70.015  91.443  0.00  0.00     0.270 C 
ATOM     10  O   UNL d   1      74.385  70.876  91.266  0.00  0.00    -0.269 OA
ENDROOT
BRANCH   8  11
ATOM     11  N   UNL d   1      75.853  69.831  93.852  0.00  0.00    -0.219 NA
ATOM     12  C   UNL d   1      75.399  69.128  94.896  0.00  0.00     0.289 C 
ATOM     13  O   UNL d   1      74.918  67.994  94.913  0.00  0.00    -0.264 OA
BRANCH  12  14
ATOM     14  CA  UNL d   1      75.512  69.896  96.187  0.00  0.00     0.127 C 
ATOM     15  N   UNL d   1      74.540  70.895  96.551  0.00  0.00    -0.096 NA
BRANCH  14  16
ATOM     16  C   UNL d   1      76.526  69.555  97.152  0.00  0.00     0.014 A 
ATOM     17  C   UNL d   1      76.327  69.212  98.406  0.00  0.00    -0.020 A 
ATOM     18  C   UNL d   1      77.258  69.160  99.653  0.00  0.00     0.052 A 
ATOM     19  C   UNL d   1      78.711  69.612  99.349  0.00  0.00    -0.021 A 
ATOM     20  C   UNL d   1      78.950  69.941  98.217  0.00  0.00    -0.004 A 
ATOM     21  C   UNL d   1      77.917  69.941  97.057  0.00  0.00     0.001 A 
ENDBRANCH  14  16
ENDBRANCH  12  14
ENDBRANCH   8  11
BRANCH   3  22
ATOM     22  C   UNL d   1      75.866  69.915  88.247  0.00  0.00     0.228 C 
ATOM     23  O   UNL d   1      76.268  71.108  88.102  0.00  0.00    -0.643 OA
ATOM     24  OXT UNL d   1      74.995  69.279  87.583  0.00  0.00    -0.643 OA
ENDBRANCH   3  22
TORSDOF 4
ENDMDL
MODEL 18
REMARK VINA RESULT:      -6.1     18.942     20.730
REMARK  4 active torsions:
REMARK  status: ('A' for Active; 'I' for Inactive)
REMARK    1  A    between atoms: CA_3  and  C_22 
REMARK    2  A    between atoms: CA_8  and  N_11 
REMARK       I    between atoms: N_11  and  C_12 
REMARK    3  A    between atoms: C_12  and  CA_14 
REMARK    4  A    between atoms: CA_14  and  C_15 
ROOT
ATOM      1  C   UNL d   1      63.869  90.709  96.471  0.00  0.00     0.033 C 
ATOM      2  C   UNL d   1      63.571  89.706  95.385  0.00  0.00     0.007 A 
ATOM      3  CA  UNL d   1      63.330  89.882  94.072  0.00  0.00     0.128 A 
ATOM      4  N   UNL d   1      63.096  88.791  93.247  0.00  0.00    -0.267 N 
ATOM      5  C   UNL d   1      63.006  87.481  93.624  0.00  0.00     0.105 A 
ATOM      6  S   UNL d   1      63.288  86.791  95.145  0.00  0.00    -0.071 SA
ATOM      7  C   UNL d   1      63.537  88.337  95.770  0.00  0.00     0.034 A 
ATOM      8  CA  UNL d   1      62.863  87.066  92.273  0.00  0.00     0.230 C 
ATOM      9  C   UNL d   1      62.800  88.517  91.959  0.00  0.00     0.270 C 
ATOM     10  O   UNL d   1      62.596  89.122  90.938  0.00  0.00    -0.269 OA
ENDROOT
BRANCH   8  11
ATOM     11  N   UNL d   1      61.977  86.160  91.820  0.00  0.00    -0.219 NA
ATOM     12  C   UNL d   1      62.516  85.149  91.127  0.00  0.00     0.289 C 
ATOM     13  O   UNL d   1      63.706  84.880  90.952  0.00  0.00    -0.264 OA
BRANCH  12  14
ATOM     14  CA  UNL d   1      61.466  84.273  90.496  0.00  0.00     0.127 C 
ATOM     15  N   UNL d   1      61.747  82.907  90.138  0.00  0.00    -0.096 NA
BRANCH  14  16
ATOM     16  C   UNL d   1      60.111  84.743  90.356  0.00  0.00     0.014 A 
ATOM     17  C   UNL d   1      59.022  84.112  90.735  0.00  0.00    -0.020 A 
ATOM     18  C   UNL d   1      57.518  84.274  90.366  0.00  0.00     0.052 A 
ATOM     19  C   UNL d   1      57.261  85.408  89.339  0.00  0.00    -0.021 A 
ATOM     20  C   UNL d   1      58.223  86.018  88.954  0.00  0.00    -0.004 A 
ATOM     21  C   UNL d   1      59.683  85.753  89.413  0.00  0.00     0.001 A 
ENDBRANCH  14  16
ENDBRANCH  12  14
ENDBRANCH   8  11
BRANCH   3  22
ATOM     22  C   UNL d   1      63.353  91.307  93.562  0.00  0.00     0.228 C 
ATOM     23  O   UNL d   1      62.222  91.874  93.484  0.00  0.00    -0.643 OA
ATOM     24  OXT UNL d   1      64.495  91.757  93.251  0.00  0.00    -0.643 OA
ENDBRANCH   3  22
TORSDOF 4
ENDMDL
MODEL 19
REMARK VINA RESULT:      -6.0     10.332     11.645
REMARK  4 active torsions:
REMARK  status: ('A' for Active; 'I' for Inactive)
REMARK    1  A    between atoms: CA_3  and  C_22 
REMARK    2  A    between atoms: CA_8  and  N_11 
REMARK       I    between atoms: N_11  and  C_12 
REMARK    3  A    between atoms: C_12  and  CA_14 
REMARK    4  A    between atoms: CA_14  and  C_15 
ROOT
ATOM      1  C   UNL d   1      81.975  76.982  92.000  0.00  0.00     0.033 C 
ATOM      2  C   UNL d   1      80.775  76.078  91.871  0.00  0.00     0.007 A 
ATOM      3  CA  UNL d   1      80.016  75.489  92.815  0.00  0.00     0.128 A 
ATOM      4  N   UNL d   1      78.932  74.701  92.456  0.00  0.00    -0.267 N 
ATOM      5  C   UNL d   1      78.545  74.365  91.189  0.00  0.00     0.105 A 
ATOM      6  S   UNL d   1      79.163  74.910  89.709  0.00  0.00    -0.071 SA
ATOM      7  C   UNL d   1      80.338  75.778  90.551  0.00  0.00     0.034 A 
ATOM      8  CA  UNL d   1      77.400  73.685  91.683  0.00  0.00     0.230 C 
ATOM      9  C   UNL d   1      77.973  73.943  93.029  0.00  0.00     0.270 C 
ATOM     10  O   UNL d   1      77.640  73.605  94.135  0.00  0.00    -0.269 OA
ENDROOT
BRANCH   8  11
ATOM     11  N   UNL d   1      76.964  72.480  91.269  0.00  0.00    -0.219 NA
ATOM     12  C   UNL d   1      75.891  72.517  90.470  0.00  0.00     0.289 C 
ATOM     13  O   UNL d   1      75.330  73.497  89.975  0.00  0.00    -0.264 OA
BRANCH  12  14
ATOM     14  CA  UNL d   1      75.346  71.141  90.192  0.00  0.00     0.127 C 
ATOM     15  N   UNL d   1      74.050  70.738  90.676  0.00  0.00    -0.096 NA
BRANCH  14  16
ATOM     16  C   UNL d   1      76.053  70.239  89.319  0.00  0.00     0.014 A 
ATOM     17  C   UNL d   1      75.705  69.899  88.098  0.00  0.00    -0.020 A 
ATOM     18  C   UNL d   1      76.112  68.719  87.167  0.00  0.00     0.052 A 
ATOM     19  C   UNL d   1      77.131  67.750  87.821  0.00  0.00    -0.021 A 
ATOM     20  C   UNL d   1      77.484  68.010  88.941  0.00  0.00    -0.004 A 
ATOM     21  C   UNL d   1      76.995  69.235  89.763  0.00  0.00     0.001 A 
ENDBRANCH  14  16
ENDBRANCH  12  14
ENDBRANCH   8  11
BRANCH   3  22
ATOM     22  C   UNL d   1      80.396  75.755  94.256  0.00  0.00     0.228 C 
ATOM     23  O   UNL d   1      81.211  74.928  94.764  0.00  0.00    -0.643 OA
ATOM     24  OXT UNL d   1      79.838  76.758  94.791  0.00  0.00    -0.643 OA
ENDBRANCH   3  22
TORSDOF 4
ENDMDL
MODEL 20
REMARK VINA RESULT:      -6.0     11.605     13.872
REMARK  4 active torsions:
REMARK  status: ('A' for Active; 'I' for Inactive)
REMARK    1  A    between atoms: CA_3  and  C_22 
REMARK    2  A    between atoms: CA_8  and  N_11 
REMARK       I    between atoms: N_11  and  C_12 
REMARK    3  A    between atoms: C_12  and  CA_14 
REMARK    4  A    between atoms: CA_14  and  C_15 
ROOT
ATOM      1  C   UNL d   1      76.242  77.150  92.722  0.00  0.00     0.033 C 
ATOM      2  C   UNL d   1      76.102  75.849  91.973  0.00  0.00     0.007 A 
ATOM      3  CA  UNL d   1      75.080  74.974  91.920  0.00  0.00     0.128 A 
ATOM      4  N   UNL d   1      75.170  73.833  91.135  0.00  0.00    -0.267 N 
ATOM      5  C   UNL d   1      76.253  73.418  90.412  0.00  0.00     0.105 A 
ATOM      6  S   UNL d   1      77.722  74.216  90.143  0.00  0.00    -0.071 SA
ATOM      7  C   UNL d   1      77.209  75.448  91.174  0.00  0.00     0.034 A 
ATOM      8  CA  UNL d   1      75.521  72.321  89.884  0.00  0.00     0.230 C 
ATOM      9  C   UNL d   1      74.448  72.736  90.823  0.00  0.00     0.270 C 
ATOM     10  O   UNL d   1      73.383  72.254  91.109  0.00  0.00    -0.269 OA
ENDROOT
BRANCH   8  11
ATOM     11  N   UNL d   1      75.974  71.058  89.770  0.00  0.00    -0.219 NA
ATOM     12  C   UNL d   1      76.402  70.726  88.546  0.00  0.00     0.289 C 
ATOM     13  O   UNL d   1      76.546  71.445  87.556  0.00  0.00    -0.264 OA
BRANCH  12  14
ATOM     14  CA  UNL d   1      76.722  69.258  88.439  0.00  0.00     0.127 C 
ATOM     15  N   UNL d   1      76.167  68.446  87.386  0.00  0.00    -0.096 NA
BRANCH  14  16
ATOM     16  C   UNL d   1      77.699  68.658  89.311  0.00  0.00     0.014 A 
ATOM     17  C   UNL d   1      78.796  69.225  89.763  0.00  0.00    -0.020 A 
ATOM     18  C   UNL d   1      80.103  68.659  90.391  0.00  0.00     0.052 A 
ATOM     19  C   UNL d   1      80.108  67.111  90.496  0.00  0.00    -0.021 A 
ATOM     20  C   UNL d   1      79.130  66.538  90.094  0.00  0.00    -0.004 A 
ATOM     21  C   UNL d   1      77.881  67.234  89.488  0.00  0.00     0.001 A 
ENDBRANCH  14  16
ENDBRANCH  12  14
ENDBRANCH   8  11
BRANCH   3  22
ATOM     22  C   UNL d   1      73.849  75.316  92.733  0.00  0.00     0.228 C 
ATOM     23  O   UNL d   1      72.983  76.021  92.135  0.00  0.00    -0.643 OA
ATOM     24  OXT UNL d   1      73.842  74.879  93.922  0.00  0.00    -0.643 OA
ENDBRANCH   3  22
TORSDOF 4
ENDMDL
