MODEL 1
REMARK VINA RESULT:      -4.9      0.000      0.000
REMARK  3 active torsions:
REMARK  status: ('A' for Active; 'I' for Inactive)
REMARK    1  A    between atoms: C_3  and  C_5 
REMARK    2  A    between atoms: C_5  and  C_7 
REMARK    3  A    between atoms: C_7  and  C_9 
ROOT
ATOM      1  O   UNL d   1      61.054  89.437  96.289  0.00  0.00    -0.134 OA
ATOM      2  C   UNL d   1      61.921  90.229  95.493  0.00  0.00     0.102 C 
ATOM      3  C   UNL d   1      62.722  91.124  94.594  0.00  0.00     0.297 C 
ATOM      4  O   UNL d   1      61.971  91.851  93.864  0.00  0.00    -0.272 OA
ENDROOT
BRANCH   3   5
ATOM      5  C   UNL d   1      64.346  91.215  94.501  0.00  0.00     0.286 C 
ATOM      6  O   UNL d   1      64.713  91.852  93.451  0.00  0.00    -0.279 OA
BRANCH   5   7
ATOM      7  C   UNL d   1      65.619  90.673  95.454  0.00  0.00     0.286 C 
ATOM      8  O   UNL d   1      66.516  91.560  95.683  0.00  0.00    -0.279 OA
BRANCH   7   9
ATOM      9  C   UNL d   1      65.996  89.260  96.174  0.00  0.00     0.297 C 
ATOM     10  O   UNL d   1      67.202  88.967  96.469  0.00  0.00    -0.272 OA
ATOM     11  C   UNL d   1      65.041  88.172  96.568  0.00  0.00     0.102 C 
ATOM     12  O   UNL d   1      64.248  87.075  96.987  0.00  0.00    -0.134 OA
ENDBRANCH   7   9
ENDBRANCH   5   7
ENDBRANCH   3   5
TORSDOF 3
ENDMDL
MODEL 2
REMARK VINA RESULT:      -4.8     23.738     25.520
REMARK  3 active torsions:
REMARK  status: ('A' for Active; 'I' for Inactive)
REMARK    1  A    between atoms: C_3  and  C_5 
REMARK    2  A    between atoms: C_5  and  C_7 
REMARK    3  A    between atoms: C_7  and  C_9 
ROOT
ATOM      1  O   UNL d   1      73.770  71.211  90.785  0.00  0.00    -0.134 OA
ATOM      2  C   UNL d   1      74.914  71.227  89.948  0.00  0.00     0.102 C 
ATOM      3  C   UNL d   1      76.105  71.384  89.048  0.00  0.00     0.297 C 
ATOM      4  O   UNL d   1      76.267  72.597  88.689  0.00  0.00    -0.272 OA
ENDROOT
BRANCH   3   5
ATOM      5  C   UNL d   1      77.114  70.206  88.548  0.00  0.00     0.286 C 
ATOM      6  O   UNL d   1      78.290  70.373  89.027  0.00  0.00    -0.279 OA
BRANCH   5   7
ATOM      7  C   UNL d   1      76.958  68.851  87.567  0.00  0.00     0.286 C 
ATOM      8  O   UNL d   1      75.769  68.656  87.129  0.00  0.00    -0.279 OA
BRANCH   7   9
ATOM      9  C   UNL d   1      77.978  67.700  87.026  0.00  0.00     0.297 C 
ATOM     10  O   UNL d   1      78.521  67.783  85.876  0.00  0.00    -0.272 OA
ATOM     11  C   UNL d   1      78.396  66.458  87.757  0.00  0.00     0.102 C 
ATOM     12  O   UNL d   1      78.868  65.254  88.337  0.00  0.00    -0.134 OA
ENDBRANCH   7   9
ENDBRANCH   5   7
ENDBRANCH   3   5
TORSDOF 3
ENDMDL
MODEL 3
REMARK VINA RESULT:      -4.8     22.805     24.149
REMARK  3 active torsions:
REMARK  status: ('A' for Active; 'I' for Inactive)
REMARK    1  A    between atoms: C_3  and  C_5 
REMARK    2  A    between atoms: C_5  and  C_7 
REMARK    3  A    between atoms: C_7  and  C_9 
ROOT
ATOM      1  O   UNL d   1      60.101  72.655  80.166  0.00  0.00    -0.134 OA
ATOM      2  C   UNL d   1      59.142  72.647  81.211  0.00  0.00     0.102 C 
ATOM      3  C   UNL d   1      58.227  72.694  82.400  0.00  0.00     0.297 C 
ATOM      4  O   UNL d   1      58.816  73.165  83.428  0.00  0.00    -0.272 OA
ENDROOT
BRANCH   3   5
ATOM      5  C   UNL d   1      56.669  72.221  82.452  0.00  0.00     0.286 C 
ATOM      6  O   UNL d   1      56.379  71.714  83.593  0.00  0.00    -0.279 OA
BRANCH   5   7
ATOM      7  C   UNL d   1      55.385  72.250  81.369  0.00  0.00     0.286 C 
ATOM      8  O   UNL d   1      55.533  71.471  80.362  0.00  0.00    -0.279 OA
BRANCH   7   9
ATOM      9  C   UNL d   1      53.966  73.049  81.288  0.00  0.00     0.297 C 
ATOM     10  O   UNL d   1      52.891  72.538  81.745  0.00  0.00    -0.272 OA
ATOM     11  C   UNL d   1      53.737  74.411  80.702  0.00  0.00     0.102 C 
ATOM     12  O   UNL d   1      53.386  75.682  80.183  0.00  0.00    -0.134 OA
ENDBRANCH   7   9
ENDBRANCH   5   7
ENDBRANCH   3   5
TORSDOF 3
ENDMDL
MODEL 4
REMARK VINA RESULT:      -4.8     23.706     25.707
REMARK  3 active torsions:
REMARK  status: ('A' for Active; 'I' for Inactive)
REMARK    1  A    between atoms: C_3  and  C_5 
REMARK    2  A    between atoms: C_5  and  C_7 
REMARK    3  A    between atoms: C_7  and  C_9 
ROOT
ATOM      1  O   UNL d   1      78.829  65.303  88.599  0.00  0.00    -0.134 OA
ATOM      2  C   UNL d   1      78.344  66.460  87.938  0.00  0.00     0.102 C 
ATOM      3  C   UNL d   1      77.904  67.643  87.126  0.00  0.00     0.297 C 
ATOM      4  O   UNL d   1      78.409  67.623  85.955  0.00  0.00    -0.272 OA
ENDROOT
BRANCH   3   5
ATOM      5  C   UNL d   1      76.912  68.842  87.605  0.00  0.00     0.286 C 
ATOM      6  O   UNL d   1      75.726  68.668  87.152  0.00  0.00    -0.279 OA
BRANCH   5   7
ATOM      7  C   UNL d   1      77.092  70.227  88.539  0.00  0.00     0.286 C 
ATOM      8  O   UNL d   1      78.295  70.443  88.928  0.00  0.00    -0.279 OA
BRANCH   7   9
ATOM      9  C   UNL d   1      76.084  71.388  89.082  0.00  0.00     0.297 C 
ATOM     10  O   UNL d   1      76.228  72.606  88.735  0.00  0.00    -0.272 OA
ATOM     11  C   UNL d   1      74.918  71.200  90.008  0.00  0.00     0.102 C 
ATOM     12  O   UNL d   1      73.796  71.160  90.872  0.00  0.00    -0.134 OA
ENDBRANCH   7   9
ENDBRANCH   5   7
ENDBRANCH   3   5
TORSDOF 3
ENDMDL
MODEL 5
REMARK VINA RESULT:      -4.8     24.926     26.959
REMARK  3 active torsions:
REMARK  status: ('A' for Active; 'I' for Inactive)
REMARK    1  A    between atoms: C_3  and  C_5 
REMARK    2  A    between atoms: C_5  and  C_7 
REMARK    3  A    between atoms: C_7  and  C_9 
ROOT
ATOM      1  O   UNL d   1      80.293  65.198  89.250  0.00  0.00    -0.134 OA
ATOM      2  C   UNL d   1      79.169  65.733  88.571  0.00  0.00     0.102 C 
ATOM      3  C   UNL d   1      77.909  66.183  87.890  0.00  0.00     0.297 C 
ATOM      4  O   UNL d   1      76.976  65.323  88.014  0.00  0.00    -0.272 OA
ENDROOT
BRANCH   3   5
ATOM      5  C   UNL d   1      77.682  67.575  87.076  0.00  0.00     0.286 C 
ATOM      6  O   UNL d   1      78.489  67.666  86.084  0.00  0.00    -0.279 OA
BRANCH   5   7
ATOM      7  C   UNL d   1      76.650  68.890  87.243  0.00  0.00     0.286 C 
ATOM      8  O   UNL d   1      76.084  69.253  86.151  0.00  0.00    -0.279 OA
BRANCH   7   9
ATOM      9  C   UNL d   1      76.185  69.836  88.487  0.00  0.00     0.297 C 
ATOM     10  O   UNL d   1      76.986  70.674  89.018  0.00  0.00    -0.272 OA
ATOM     11  C   UNL d   1      74.835  69.856  89.141  0.00  0.00     0.102 C 
ATOM     12  O   UNL d   1      73.609  69.974  89.842  0.00  0.00    -0.134 OA
ENDBRANCH   7   9
ENDBRANCH   5   7
ENDBRANCH   3   5
TORSDOF 3
ENDMDL
MODEL 6
REMARK VINA RESULT:      -4.7     15.601     18.222
REMARK  3 active torsions:
REMARK  status: ('A' for Active; 'I' for Inactive)
REMARK    1  A    between atoms: C_3  and  C_5 
REMARK    2  A    between atoms: C_5  and  C_7 
REMARK    3  A    between atoms: C_7  and  C_9 
ROOT
ATOM      1  O   UNL d   1      78.654  86.446  98.194  0.00  0.00    -0.134 OA
ATOM      2  C   UNL d   1      78.719  85.051  97.945  0.00  0.00     0.102 C 
ATOM      3  C   UNL d   1      78.656  83.585  97.630  0.00  0.00     0.297 C 
ATOM      4  O   UNL d   1      77.537  83.264  97.110  0.00  0.00    -0.272 OA
ENDROOT
BRANCH   3   5
ATOM      5  C   UNL d   1      79.824  82.480  97.887  0.00  0.00     0.286 C 
ATOM      6  O   UNL d   1      79.954  82.229  99.137  0.00  0.00    -0.279 OA
BRANCH   5   7
ATOM      7  C   UNL d   1      80.874  81.614  96.902  0.00  0.00     0.286 C 
ATOM      8  O   UNL d   1      80.456  80.441  96.595  0.00  0.00    -0.279 OA
BRANCH   7   9
ATOM      9  C   UNL d   1      82.328  81.913  96.227  0.00  0.00     0.297 C 
ATOM     10  O   UNL d   1      83.310  82.329  96.926  0.00  0.00    -0.272 OA
ATOM     11  C   UNL d   1      82.695  81.752  94.782  0.00  0.00     0.102 C 
ATOM     12  O   UNL d   1      83.169  81.643  93.450  0.00  0.00    -0.134 OA
ENDBRANCH   7   9
ENDBRANCH   5   7
ENDBRANCH   3   5
TORSDOF 3
ENDMDL
MODEL 7
REMARK VINA RESULT:      -4.7      2.815      4.143
REMARK  3 active torsions:
REMARK  status: ('A' for Active; 'I' for Inactive)
REMARK    1  A    between atoms: C_3  and  C_5 
REMARK    2  A    between atoms: C_5  and  C_7 
REMARK    3  A    between atoms: C_7  and  C_9 
ROOT
ATOM      1  O   UNL d   1      61.238  89.835  96.176  0.00  0.00    -0.134 OA
ATOM      2  C   UNL d   1      62.507  90.386  95.865  0.00  0.00     0.102 C 
ATOM      3  C   UNL d   1      63.846  91.035  95.662  0.00  0.00     0.297 C 
ATOM      4  O   UNL d   1      64.177  91.752  96.662  0.00  0.00    -0.272 OA
ENDROOT
BRANCH   3   5
ATOM      5  C   UNL d   1      64.814  90.890  94.359  0.00  0.00     0.286 C 
ATOM      6  O   UNL d   1      65.822  91.675  94.445  0.00  0.00    -0.279 OA
BRANCH   5   7
ATOM      7  C   UNL d   1      64.785  89.961  92.960  0.00  0.00     0.286 C 
ATOM      8  O   UNL d   1      65.590  88.964  92.977  0.00  0.00    -0.279 OA
BRANCH   7   9
ATOM      9  C   UNL d   1      63.961  90.024  91.554  0.00  0.00     0.297 C 
ATOM     10  O   UNL d   1      63.504  91.126  91.103  0.00  0.00    -0.272 OA
ATOM     11  C   UNL d   1      63.645  88.871  90.649  0.00  0.00     0.102 C 
ATOM     12  O   UNL d   1      63.281  87.872  89.711  0.00  0.00    -0.134 OA
ENDBRANCH   7   9
ENDBRANCH   5   7
ENDBRANCH   3   5
TORSDOF 3
ENDMDL
MODEL 8
REMARK VINA RESULT:      -4.7      1.486      4.125
REMARK  3 active torsions:
REMARK  status: ('A' for Active; 'I' for Inactive)
REMARK    1  A    between atoms: C_3  and  C_5 
REMARK    2  A    between atoms: C_5  and  C_7 
REMARK    3  A    between atoms: C_7  and  C_9 
ROOT
ATOM      1  O   UNL d   1      65.397  88.484  97.024  0.00  0.00    -0.134 OA
ATOM      2  C   UNL d   1      65.430  89.574  96.117  0.00  0.00     0.102 C 
ATOM      3  C   UNL d   1      65.571  90.780  95.235  0.00  0.00     0.297 C 
ATOM      4  O   UNL d   1      66.495  91.557  95.645  0.00  0.00    -0.272 OA
ENDROOT
BRANCH   3   5
ATOM      5  C   UNL d   1      64.695  91.126  93.906  0.00  0.00     0.286 C 
ATOM      6  O   UNL d   1      65.173  92.143  93.290  0.00  0.00    -0.279 OA
BRANCH   5   7
ATOM      7  C   UNL d   1      63.335  90.461  93.178  0.00  0.00     0.286 C 
ATOM      8  O   UNL d   1      63.310  90.586  91.902  0.00  0.00    -0.279 OA
BRANCH   7   9
ATOM      9  C   UNL d   1      62.009  89.678  93.715  0.00  0.00     0.297 C 
ATOM     10  O   UNL d   1      61.186  89.136  92.906  0.00  0.00    -0.272 OA
ATOM     11  C   UNL d   1      61.595  89.495  95.145  0.00  0.00     0.102 C 
ATOM     12  O   UNL d   1      61.094  89.252  96.449  0.00  0.00    -0.134 OA
ENDBRANCH   7   9
ENDBRANCH   5   7
ENDBRANCH   3   5
TORSDOF 3
ENDMDL
MODEL 9
REMARK VINA RESULT:      -4.7      3.364      4.425
REMARK  3 active torsions:
REMARK  status: ('A' for Active; 'I' for Inactive)
REMARK    1  A    between atoms: C_3  and  C_5 
REMARK    2  A    between atoms: C_5  and  C_7 
REMARK    3  A    between atoms: C_7  and  C_9 
ROOT
ATOM      1  O   UNL d   1      62.969  85.684  91.120  0.00  0.00    -0.134 OA
ATOM      2  C   UNL d   1      63.004  87.102  91.128  0.00  0.00     0.102 C 
ATOM      3  C   UNL d   1      62.953  88.599  91.027  0.00  0.00     0.297 C 
ATOM      4  O   UNL d   1      62.200  88.980  90.071  0.00  0.00    -0.272 OA
ENDROOT
BRANCH   3   5
ATOM      5  C   UNL d   1      63.731  89.669  91.977  0.00  0.00     0.286 C 
ATOM      6  O   UNL d   1      65.001  89.527  91.888  0.00  0.00    -0.279 OA
BRANCH   5   7
ATOM      7  C   UNL d   1      63.250  90.891  93.025  0.00  0.00     0.286 C 
ATOM      8  O   UNL d   1      62.994  92.006  92.446  0.00  0.00    -0.279 OA
BRANCH   7   9
ATOM      9  C   UNL d   1      63.025  91.002  94.636  0.00  0.00     0.297 C 
ATOM     10  O   UNL d   1      63.743  91.774  95.353  0.00  0.00    -0.272 OA
ATOM     11  C   UNL d   1      62.009  90.260  95.452  0.00  0.00     0.102 C 
ATOM     12  O   UNL d   1      61.099  89.625  96.334  0.00  0.00    -0.134 OA
ENDBRANCH   7   9
ENDBRANCH   5   7
ENDBRANCH   3   5
TORSDOF 3
ENDMDL
MODEL 10
REMARK VINA RESULT:      -4.7     22.109     23.918
REMARK  3 active torsions:
REMARK  status: ('A' for Active; 'I' for Inactive)
REMARK    1  A    between atoms: C_3  and  C_5 
REMARK    2  A    between atoms: C_5  and  C_7 
REMARK    3  A    between atoms: C_7  and  C_9 
ROOT
ATOM      1  O   UNL d   1      73.232  72.501  91.451  0.00  0.00    -0.134 OA
ATOM      2  C   UNL d   1      74.426  72.544  90.686  0.00  0.00     0.102 C 
ATOM      3  C   UNL d   1      75.729  72.700  89.957  0.00  0.00     0.297 C 
ATOM      4  O   UNL d   1      76.415  73.669  90.423  0.00  0.00    -0.272 OA
ENDROOT
BRANCH   3   5
ATOM      5  C   UNL d   1      76.270  71.791  88.719  0.00  0.00     0.286 C 
ATOM      6  O   UNL d   1      76.689  72.526  87.756  0.00  0.00    -0.279 OA
BRANCH   5   7
ATOM      7  C   UNL d   1      76.398  70.141  88.428  0.00  0.00     0.286 C 
ATOM      8  O   UNL d   1      76.479  69.428  89.490  0.00  0.00    -0.279 OA
BRANCH   7   9
ATOM      9  C   UNL d   1      76.444  69.209  87.091  0.00  0.00     0.297 C 
ATOM     10  O   UNL d   1      75.541  69.291  86.195  0.00  0.00    -0.272 OA
ATOM     11  C   UNL d   1      77.488  68.188  86.747  0.00  0.00     0.102 C 
ATOM     12  O   UNL d   1      78.403  67.199  86.305  0.00  0.00    -0.134 OA
ENDBRANCH   7   9
ENDBRANCH   5   7
ENDBRANCH   3   5
TORSDOF 3
ENDMDL
MODEL 11
REMARK VINA RESULT:      -4.5      2.119      3.679
REMARK  3 active torsions:
REMARK  status: ('A' for Active; 'I' for Inactive)
REMARK    1  A    between atoms: C_3  and  C_5 
REMARK    2  A    between atoms: C_5  and  C_7 
REMARK    3  A    between atoms: C_7  and  C_9 
ROOT
ATOM      1  O   UNL d   1      64.094  87.808  96.439  0.00  0.00    -0.134 OA
ATOM      2  C   UNL d   1      63.335  88.896  95.938  0.00  0.00     0.102 C 
ATOM      3  C   UNL d   1      62.442  90.026  95.515  0.00  0.00     0.297 C 
ATOM      4  O   UNL d   1      61.448  90.160  96.302  0.00  0.00    -0.272 OA
ENDROOT
BRANCH   3   5
ATOM      5  C   UNL d   1      62.647  91.004  94.229  0.00  0.00     0.286 C 
ATOM      6  O   UNL d   1      61.958  92.077  94.351  0.00  0.00    -0.279 OA
BRANCH   5   7
ATOM      7  C   UNL d   1      63.541  90.922  92.809  0.00  0.00     0.286 C 
ATOM      8  O   UNL d   1      63.353  91.910  92.014  0.00  0.00    -0.279 OA
BRANCH   7   9
ATOM      9  C   UNL d   1      64.614  89.864  92.185  0.00  0.00     0.297 C 
ATOM     10  O   UNL d   1      64.664  89.634  90.932  0.00  0.00    -0.272 OA
ATOM     11  C   UNL d   1      65.628  89.063  92.946  0.00  0.00     0.102 C 
ATOM     12  O   UNL d   1      66.626  88.252  93.543  0.00  0.00    -0.134 OA
ENDBRANCH   7   9
ENDBRANCH   5   7
ENDBRANCH   3   5
TORSDOF 3
ENDMDL
MODEL 12
REMARK VINA RESULT:      -4.5      1.393      4.564
REMARK  3 active torsions:
REMARK  status: ('A' for Active; 'I' for Inactive)
REMARK    1  A    between atoms: C_3  and  C_5 
REMARK    2  A    between atoms: C_5  and  C_7 
REMARK    3  A    between atoms: C_7  and  C_9 
ROOT
ATOM      1  O   UNL d   1      67.229  88.844  95.959  0.00  0.00    -0.134 OA
ATOM      2  C   UNL d   1      66.202  89.813  95.839  0.00  0.00     0.102 C 
ATOM      3  C   UNL d   1      65.149  90.884  95.843  0.00  0.00     0.297 C 
ATOM      4  O   UNL d   1      65.157  91.547  96.931  0.00  0.00    -0.272 OA
ENDROOT
BRANCH   3   5
ATOM      5  C   UNL d   1      64.094  91.219  94.648  0.00  0.00     0.286 C 
ATOM      6  O   UNL d   1      64.694  91.708  93.627  0.00  0.00    -0.279 OA
BRANCH   5   7
ATOM      7  C   UNL d   1      62.431  91.072  94.461  0.00  0.00     0.286 C 
ATOM      8  O   UNL d   1      61.902  91.989  93.738  0.00  0.00    -0.279 OA
BRANCH   7   9
ATOM      9  C   UNL d   1      61.303  90.019  94.989  0.00  0.00     0.297 C 
ATOM     10  O   UNL d   1      61.175  89.752  96.229  0.00  0.00    -0.272 OA
ATOM     11  C   UNL d   1      60.318  89.264  94.146  0.00  0.00     0.102 C 
ATOM     12  O   UNL d   1      59.340  88.495  93.467  0.00  0.00    -0.134 OA
ENDBRANCH   7   9
ENDBRANCH   5   7
ENDBRANCH   3   5
TORSDOF 3
ENDMDL
MODEL 13
REMARK VINA RESULT:      -4.5      2.783      4.180
REMARK  3 active torsions:
REMARK  status: ('A' for Active; 'I' for Inactive)
REMARK    1  A    between atoms: C_3  and  C_5 
REMARK    2  A    between atoms: C_5  and  C_7 
REMARK    3  A    between atoms: C_7  and  C_9 
ROOT
ATOM      1  O   UNL d   1      66.771  87.006  92.846  0.00  0.00    -0.134 OA
ATOM      2  C   UNL d   1      65.695  87.809  92.391  0.00  0.00     0.102 C 
ATOM      3  C   UNL d   1      64.523  88.555  91.821  0.00  0.00     0.297 C 
ATOM      4  O   UNL d   1      63.928  87.877  90.920  0.00  0.00    -0.272 OA
ENDROOT
BRANCH   3   5
ATOM      5  C   UNL d   1      64.012  90.042  92.244  0.00  0.00     0.286 C 
ATOM      6  O   UNL d   1      63.291  90.562  91.321  0.00  0.00    -0.279 OA
BRANCH   5   7
ATOM      7  C   UNL d   1      64.214  91.026  93.591  0.00  0.00     0.286 C 
ATOM      8  O   UNL d   1      64.982  92.033  93.392  0.00  0.00    -0.279 OA
BRANCH   7   9
ATOM      9  C   UNL d   1      63.658  91.006  95.123  0.00  0.00     0.297 C 
ATOM     10  O   UNL d   1      64.317  91.540  96.075  0.00  0.00    -0.272 OA
ATOM     11  C   UNL d   1      62.373  90.397  95.602  0.00  0.00     0.102 C 
ATOM     12  O   UNL d   1      61.195  89.864  96.181  0.00  0.00    -0.134 OA
ENDBRANCH   7   9
ENDBRANCH   5   7
ENDBRANCH   3   5
TORSDOF 3
ENDMDL
MODEL 14
REMARK VINA RESULT:      -4.4      2.422      4.430
REMARK  3 active torsions:
REMARK  status: ('A' for Active; 'I' for Inactive)
REMARK    1  A    between atoms: C_3  and  C_5 
REMARK    2  A    between atoms: C_5  and  C_7 
REMARK    3  A    between atoms: C_7  and  C_9 
ROOT
ATOM      1  O   UNL d   1      64.872  88.083  96.844  0.00  0.00    -0.134 OA
ATOM      2  C   UNL d   1      65.067  89.277  96.105  0.00  0.00     0.102 C 
ATOM      3  C   UNL d   1      65.367  90.580  95.422  0.00  0.00     0.297 C 
ATOM      4  O   UNL d   1      66.230  91.261  96.066  0.00  0.00    -0.272 OA
ENDROOT
BRANCH   3   5
ATOM      5  C   UNL d   1      64.715  91.126  94.032  0.00  0.00     0.286 C 
ATOM      6  O   UNL d   1      65.403  92.094  93.550  0.00  0.00    -0.279 OA
BRANCH   5   7
ATOM      7  C   UNL d   1      63.372  90.714  93.111  0.00  0.00     0.286 C 
ATOM      8  O   UNL d   1      62.540  91.674  92.939  0.00  0.00    -0.279 OA
BRANCH   7   9
ATOM      9  C   UNL d   1      62.861  89.356  92.366  0.00  0.00     0.297 C 
ATOM     10  O   UNL d   1      61.692  88.888  92.571  0.00  0.00    -0.272 OA
ATOM     11  C   UNL d   1      63.641  88.518  91.397  0.00  0.00     0.102 C 
ATOM     12  O   UNL d   1      64.267  87.644  90.474  0.00  0.00    -0.134 OA
ENDBRANCH   7   9
ENDBRANCH   5   7
ENDBRANCH   3   5
TORSDOF 3
ENDMDL
MODEL 15
REMARK VINA RESULT:      -4.4      2.231      4.799
REMARK  3 active torsions:
REMARK  status: ('A' for Active; 'I' for Inactive)
REMARK    1  A    between atoms: C_3  and  C_5 
REMARK    2  A    between atoms: C_5  and  C_7 
REMARK    3  A    between atoms: C_7  and  C_9 
ROOT
ATOM      1  O   UNL d   1      67.557  86.320  92.705  0.00  0.00    -0.134 OA
ATOM      2  C   UNL d   1      66.861  87.473  93.148  0.00  0.00     0.102 C 
ATOM      3  C   UNL d   1      66.193  88.681  93.738  0.00  0.00     0.297 C 
ATOM      4  O   UNL d   1      66.593  88.904  94.928  0.00  0.00    -0.272 OA
ENDROOT
BRANCH   3   5
ATOM      5  C   UNL d   1      65.089  89.637  93.018  0.00  0.00     0.286 C 
ATOM      6  O   UNL d   1      64.891  89.279  91.803  0.00  0.00    -0.279 OA
BRANCH   5   7
ATOM      7  C   UNL d   1      64.171  90.959  93.500  0.00  0.00     0.286 C 
ATOM      8  O   UNL d   1      64.754  92.089  93.334  0.00  0.00    -0.279 OA
BRANCH   7   9
ATOM      9  C   UNL d   1      62.686  91.156  94.144  0.00  0.00     0.297 C 
ATOM     10  O   UNL d   1      61.906  92.080  93.739  0.00  0.00    -0.272 OA
ATOM     11  C   UNL d   1      62.065  90.331  95.232  0.00  0.00     0.102 C 
ATOM     12  O   UNL d   1      61.367  89.633  96.249  0.00  0.00    -0.134 OA
ENDBRANCH   7   9
ENDBRANCH   5   7
ENDBRANCH   3   5
TORSDOF 3
ENDMDL
MODEL 16
REMARK VINA RESULT:      -4.4      2.215      3.494
REMARK  3 active torsions:
REMARK  status: ('A' for Active; 'I' for Inactive)
REMARK    1  A    between atoms: C_3  and  C_5 
REMARK    2  A    between atoms: C_5  and  C_7 
REMARK    3  A    between atoms: C_7  and  C_9 
ROOT
ATOM      1  O   UNL d   1      61.454  90.120  96.418  0.00  0.00    -0.134 OA
ATOM      2  C   UNL d   1      61.508  89.776  95.044  0.00  0.00     0.102 C 
ATOM      3  C   UNL d   1      61.426  89.384  93.597  0.00  0.00     0.297 C 
ATOM      4  O   UNL d   1      60.244  89.036  93.270  0.00  0.00    -0.272 OA
ENDROOT
BRANCH   3   5
ATOM      5  C   UNL d   1      62.646  89.377  92.517  0.00  0.00     0.286 C 
ATOM      6  O   UNL d   1      62.257  88.916  91.386  0.00  0.00    -0.279 OA
BRANCH   5   7
ATOM      7  C   UNL d   1      64.263  89.829  92.553  0.00  0.00     0.286 C 
ATOM      8  O   UNL d   1      64.985  89.262  91.658  0.00  0.00    -0.279 OA
BRANCH   7   9
ATOM      9  C   UNL d   1      65.156  90.836  93.474  0.00  0.00     0.297 C 
ATOM     10  O   UNL d   1      65.103  92.100  93.314  0.00  0.00    -0.272 OA
ATOM     11  C   UNL d   1      66.104  90.446  94.569  0.00  0.00     0.102 C 
ATOM     12  O   UNL d   1      67.025  90.212  95.621  0.00  0.00    -0.134 OA
ENDBRANCH   7   9
ENDBRANCH   5   7
ENDBRANCH   3   5
TORSDOF 3
ENDMDL
MODEL 17
REMARK VINA RESULT:      -4.3     23.315     24.540
REMARK  3 active torsions:
REMARK  status: ('A' for Active; 'I' for Inactive)
REMARK    1  A    between atoms: C_3  and  C_5 
REMARK    2  A    between atoms: C_5  and  C_7 
REMARK    3  A    between atoms: C_7  and  C_9 
ROOT
ATOM      1  O   UNL d   1      59.880  72.581  80.285  0.00  0.00    -0.134 OA
ATOM      2  C   UNL d   1      58.931  72.591  81.339  0.00  0.00     0.102 C 
ATOM      3  C   UNL d   1      58.031  72.640  82.539  0.00  0.00     0.297 C 
ATOM      4  O   UNL d   1      58.667  72.981  83.590  0.00  0.00    -0.272 OA
ENDROOT
BRANCH   3   5
ATOM      5  C   UNL d   1      56.435  72.313  82.578  0.00  0.00     0.286 C 
ATOM      6  O   UNL d   1      56.161  71.467  83.499  0.00  0.00    -0.279 OA
BRANCH   5   7
ATOM      7  C   UNL d   1      55.099  72.828  81.699  0.00  0.00     0.286 C 
ATOM      8  O   UNL d   1      54.266  73.528  82.376  0.00  0.00    -0.279 OA
BRANCH   7   9
ATOM      9  C   UNL d   1      54.597  72.647  80.158  0.00  0.00     0.297 C 
ATOM     10  O   UNL d   1      55.029  73.404  79.227  0.00  0.00    -0.272 OA
ATOM     11  C   UNL d   1      53.618  71.630  79.649  0.00  0.00     0.102 C 
ATOM     12  O   UNL d   1      52.712  70.725  79.042  0.00  0.00    -0.134 OA
ENDBRANCH   7   9
ENDBRANCH   5   7
ENDBRANCH   3   5
TORSDOF 3
ENDMDL
MODEL 18
REMARK VINA RESULT:      -4.3     17.349     19.328
REMARK  3 active torsions:
REMARK  status: ('A' for Active; 'I' for Inactive)
REMARK    1  A    between atoms: C_3  and  C_5 
REMARK    2  A    between atoms: C_5  and  C_7 
REMARK    3  A    between atoms: C_7  and  C_9 
ROOT
ATOM      1  O   UNL d   1      76.922  80.044  99.897  0.00  0.00    -0.134 OA
ATOM      2  C   UNL d   1      78.237  80.290  99.425  0.00  0.00     0.102 C 
ATOM      3  C   UNL d   1      79.669  80.436  98.999  0.00  0.00     0.297 C 
ATOM      4  O   UNL d   1      80.402  79.518  99.493  0.00  0.00    -0.272 OA
ENDROOT
BRANCH   3   5
ATOM      5  C   UNL d   1      80.287  81.591  98.031  0.00  0.00     0.286 C 
ATOM      6  O   UNL d   1      79.840  82.748  98.351  0.00  0.00    -0.279 OA
BRANCH   5   7
ATOM      7  C   UNL d   1      81.355  81.603  96.735  0.00  0.00     0.286 C 
ATOM      8  O   UNL d   1      81.529  82.761  96.210  0.00  0.00    -0.279 OA
BRANCH   7   9
ATOM      9  C   UNL d   1      82.245  80.473  95.966  0.00  0.00     0.297 C 
ATOM     10  O   UNL d   1      82.822  80.725  94.858  0.00  0.00    -0.272 OA
ATOM     11  C   UNL d   1      82.494  79.066  96.423  0.00  0.00     0.102 C 
ATOM     12  O   UNL d   1      82.806  77.721  96.741  0.00  0.00    -0.134 OA
ENDBRANCH   7   9
ENDBRANCH   5   7
ENDBRANCH   3   5
TORSDOF 3
ENDMDL
MODEL 19
REMARK VINA RESULT:      -4.3     24.196     25.951
REMARK  3 active torsions:
REMARK  status: ('A' for Active; 'I' for Inactive)
REMARK    1  A    between atoms: C_3  and  C_5 
REMARK    2  A    between atoms: C_5  and  C_7 
REMARK    3  A    between atoms: C_7  and  C_9 
ROOT
ATOM      1  O   UNL d   1      74.103  70.875  90.894  0.00  0.00    -0.134 OA
ATOM      2  C   UNL d   1      74.974  70.700  89.788  0.00  0.00     0.102 C 
ATOM      3  C   UNL d   1      75.933  70.651  88.635  0.00  0.00     0.297 C 
ATOM      4  O   UNL d   1      76.512  71.773  88.456  0.00  0.00    -0.272 OA
ENDROOT
BRANCH   3   5
ATOM      5  C   UNL d   1      76.251  69.368  87.683  0.00  0.00     0.286 C 
ATOM      6  O   UNL d   1      75.428  69.305  86.704  0.00  0.00    -0.279 OA
BRANCH   5   7
ATOM      7  C   UNL d   1      77.393  68.136  87.699  0.00  0.00     0.286 C 
ATOM      8  O   UNL d   1      78.015  67.985  86.588  0.00  0.00    -0.279 OA
BRANCH   7   9
ATOM      9  C   UNL d   1      77.912  67.062  88.812  0.00  0.00     0.297 C 
ATOM     10  O   UNL d   1      77.835  67.312  90.060  0.00  0.00    -0.272 OA
ATOM     11  C   UNL d   1      78.514  65.715  88.544  0.00  0.00     0.102 C 
ATOM     12  O   UNL d   1      79.094  64.427  88.428  0.00  0.00    -0.134 OA
ENDBRANCH   7   9
ENDBRANCH   5   7
ENDBRANCH   3   5
TORSDOF 3
ENDMDL
MODEL 20
REMARK VINA RESULT:      -4.0     23.000     24.200
REMARK  3 active torsions:
REMARK  status: ('A' for Active; 'I' for Inactive)
REMARK    1  A    between atoms: C_3  and  C_5 
REMARK    2  A    between atoms: C_5  and  C_7 
REMARK    3  A    between atoms: C_7  and  C_9 
ROOT
ATOM      1  O   UNL d   1      60.165  73.858  81.467  0.00  0.00    -0.134 OA
ATOM      2  C   UNL d   1      59.121  73.299  82.247  0.00  0.00     0.102 C 
ATOM      3  C   UNL d   1      58.098  72.728  83.185  0.00  0.00     0.297 C 
ATOM      4  O   UNL d   1      58.503  72.754  84.394  0.00  0.00    -0.272 OA
ENDROOT
BRANCH   3   5
ATOM      5  C   UNL d   1      56.635  72.132  82.790  0.00  0.00     0.286 C 
ATOM      6  O   UNL d   1      56.181  71.372  83.717  0.00  0.00    -0.279 OA
BRANCH   5   7
ATOM      7  C   UNL d   1      55.610  72.288  81.468  0.00  0.00     0.286 C 
ATOM      8  O   UNL d   1      54.363  72.272  81.768  0.00  0.00    -0.279 OA
BRANCH   7   9
ATOM      9  C   UNL d   1      55.823  72.458  79.861  0.00  0.00     0.297 C 
ATOM     10  O   UNL d   1      55.109  73.264  79.179  0.00  0.00    -0.272 OA
ATOM     11  C   UNL d   1      56.826  71.737  79.009  0.00  0.00     0.102 C 
ATOM     12  O   UNL d   1      57.723  71.127  78.097  0.00  0.00    -0.134 OA
ENDBRANCH   7   9
ENDBRANCH   5   7
ENDBRANCH   3   5
TORSDOF 3
ENDMDL
