MODEL 1
REMARK VINA RESULT:      -4.9      0.000      0.000
REMARK  3 active torsions:
REMARK  status: ('A' for Active; 'I' for Inactive)
REMARK    1  A    between atoms: C_3  and  C_5 
REMARK    2  A    between atoms: C_5  and  C_7 
REMARK    3  A    between atoms: C_7  and  C_9 
ROOT
ATOM      1  O   UNL d   1      78.788  81.020  99.662  0.00  0.00    -0.134 OA
ATOM      2  C   UNL d   1      79.609  81.694  98.722  0.00  0.00     0.102 C 
ATOM      3  C   UNL d   1      80.412  82.526  97.765  0.00  0.00     0.297 C 
ATOM      4  O   UNL d   1      80.085  83.757  97.824  0.00  0.00    -0.272 OA
ENDROOT
BRANCH   3   5
ATOM      5  C   UNL d   1      81.571  82.000  96.749  0.00  0.00     0.286 C 
ATOM      6  O   UNL d   1      82.737  82.304  97.183  0.00  0.00    -0.279 OA
BRANCH   5   7
ATOM      7  C   UNL d   1      81.578  81.166  95.290  0.00  0.00     0.286 C 
ATOM      8  O   UNL d   1      80.442  80.666  94.968  0.00  0.00    -0.279 OA
BRANCH   7   9
ATOM      9  C   UNL d   1      82.706  80.834  94.160  0.00  0.00     0.297 C 
ATOM     10  O   UNL d   1      82.377  80.506  92.973  0.00  0.00    -0.272 OA
ATOM     11  C   UNL d   1      84.194  80.864  94.345  0.00  0.00     0.102 C 
ATOM     12  O   UNL d   1      85.611  80.855  94.386  0.00  0.00    -0.134 OA
ENDBRANCH   7   9
ENDBRANCH   5   7
ENDBRANCH   3   5
TORSDOF 3
ENDMDL
MODEL 2
REMARK VINA RESULT:      -4.9     18.374     20.436
REMARK  3 active torsions:
REMARK  status: ('A' for Active; 'I' for Inactive)
REMARK    1  A    between atoms: C_3  and  C_5 
REMARK    2  A    between atoms: C_5  and  C_7 
REMARK    3  A    between atoms: C_7  and  C_9 
ROOT
ATOM      1  O   UNL d   1      65.309  88.338  97.114  0.00  0.00    -0.134 OA
ATOM      2  C   UNL d   1      65.361  89.511  96.318  0.00  0.00     0.102 C 
ATOM      3  C   UNL d   1      65.516  90.799  95.564  0.00  0.00     0.297 C 
ATOM      4  O   UNL d   1      66.402  91.549  96.091  0.00  0.00    -0.272 OA
ENDROOT
BRANCH   3   5
ATOM      5  C   UNL d   1      64.695  91.256  94.233  0.00  0.00     0.286 C 
ATOM      6  O   UNL d   1      65.415  92.003  93.481  0.00  0.00    -0.279 OA
BRANCH   5   7
ATOM      7  C   UNL d   1      63.149  90.973  93.639  0.00  0.00     0.286 C 
ATOM      8  O   UNL d   1      62.764  91.821  92.758  0.00  0.00    -0.279 OA
BRANCH   7   9
ATOM      9  C   UNL d   1      61.996  89.856  93.921  0.00  0.00     0.297 C 
ATOM     10  O   UNL d   1      61.378  89.286  92.962  0.00  0.00    -0.272 OA
ATOM     11  C   UNL d   1      61.527  89.369  95.260  0.00  0.00     0.102 C 
ATOM     12  O   UNL d   1      60.997  88.828  96.457  0.00  0.00    -0.134 OA
ENDBRANCH   7   9
ENDBRANCH   5   7
ENDBRANCH   3   5
TORSDOF 3
ENDMDL
MODEL 3
REMARK VINA RESULT:      -4.8     29.986     31.394
REMARK  3 active torsions:
REMARK  status: ('A' for Active; 'I' for Inactive)
REMARK    1  A    between atoms: C_3  and  C_5 
REMARK    2  A    between atoms: C_5  and  C_7 
REMARK    3  A    between atoms: C_7  and  C_9 
ROOT
ATOM      1  O   UNL d   1      58.165  72.530  83.756  0.00  0.00    -0.134 OA
ATOM      2  C   UNL d   1      58.285  72.328  82.358  0.00  0.00     0.102 C 
ATOM      3  C   UNL d   1      58.553  72.115  80.896  0.00  0.00     0.297 C 
ATOM      4  O   UNL d   1      59.803  72.058  80.650  0.00  0.00    -0.272 OA
ENDROOT
BRANCH   3   5
ATOM      5  C   UNL d   1      57.445  71.965  79.712  0.00  0.00     0.286 C 
ATOM      6  O   UNL d   1      57.939  72.287  78.574  0.00  0.00    -0.279 OA
BRANCH   5   7
ATOM      7  C   UNL d   1      55.833  71.493  79.650  0.00  0.00     0.286 C 
ATOM      8  O   UNL d   1      55.637  70.383  79.039  0.00  0.00    -0.279 OA
BRANCH   7   9
ATOM      9  C   UNL d   1      54.429  72.120  80.192  0.00  0.00     0.297 C 
ATOM     10  O   UNL d   1      53.443  71.371  80.495  0.00  0.00    -0.272 OA
ATOM     11  C   UNL d   1      54.118  73.573  80.398  0.00  0.00     0.102 C 
ATOM     12  O   UNL d   1      53.697  74.905  80.635  0.00  0.00    -0.134 OA
ENDBRANCH   7   9
ENDBRANCH   5   7
ENDBRANCH   3   5
TORSDOF 3
ENDMDL
MODEL 4
REMARK VINA RESULT:      -4.8     14.132     16.235
REMARK  3 active torsions:
REMARK  status: ('A' for Active; 'I' for Inactive)
REMARK    1  A    between atoms: C_3  and  C_5 
REMARK    2  A    between atoms: C_5  and  C_7 
REMARK    3  A    between atoms: C_7  and  C_9 
ROOT
ATOM      1  O   UNL d   1      77.835  65.039  88.497  0.00  0.00    -0.134 OA
ATOM      2  C   UNL d   1      77.736  66.308  87.871  0.00  0.00     0.102 C 
ATOM      3  C   UNL d   1      77.724  67.603  87.113  0.00  0.00     0.297 C 
ATOM      4  O   UNL d   1      78.492  67.560  86.096  0.00  0.00    -0.272 OA
ENDROOT
BRANCH   3   5
ATOM      5  C   UNL d   1      76.866  68.939  87.476  0.00  0.00     0.286 C 
ATOM      6  O   UNL d   1      76.127  69.295  86.491  0.00  0.00    -0.279 OA
BRANCH   5   7
ATOM      7  C   UNL d   1      76.737  69.933  88.824  0.00  0.00     0.286 C 
ATOM      8  O   UNL d   1      77.471  69.573  89.812  0.00  0.00    -0.279 OA
BRANCH   7   9
ATOM      9  C   UNL d   1      75.884  71.275  89.186  0.00  0.00     0.297 C 
ATOM     10  O   UNL d   1      76.144  72.395  88.634  0.00  0.00    -0.272 OA
ATOM     11  C   UNL d   1      74.746  71.378  90.158  0.00  0.00     0.102 C 
ATOM     12  O   UNL d   1      73.664  71.610  91.043  0.00  0.00    -0.134 OA
ENDBRANCH   7   9
ENDBRANCH   5   7
ENDBRANCH   3   5
TORSDOF 3
ENDMDL
MODEL 5
REMARK VINA RESULT:      -4.7     18.792     20.035
REMARK  3 active torsions:
REMARK  status: ('A' for Active; 'I' for Inactive)
REMARK    1  A    between atoms: C_3  and  C_5 
REMARK    2  A    between atoms: C_5  and  C_7 
REMARK    3  A    between atoms: C_7  and  C_9 
ROOT
ATOM      1  O   UNL d   1      61.255  89.961  96.157  0.00  0.00    -0.134 OA
ATOM      2  C   UNL d   1      62.553  90.444  95.855  0.00  0.00     0.102 C 
ATOM      3  C   UNL d   1      63.931  91.010  95.665  0.00  0.00     0.297 C 
ATOM      4  O   UNL d   1      64.335  91.623  96.707  0.00  0.00    -0.272 OA
ENDROOT
BRANCH   3   5
ATOM      5  C   UNL d   1      64.857  90.898  94.330  0.00  0.00     0.286 C 
ATOM      6  O   UNL d   1      65.835  91.725  94.377  0.00  0.00    -0.279 OA
BRANCH   5   7
ATOM      7  C   UNL d   1      64.818  89.961  92.936  0.00  0.00     0.286 C 
ATOM      8  O   UNL d   1      65.629  88.968  92.950  0.00  0.00    -0.279 OA
BRANCH   7   9
ATOM      9  C   UNL d   1      63.979  90.012  91.539  0.00  0.00     0.297 C 
ATOM     10  O   UNL d   1      63.482  91.103  91.104  0.00  0.00    -0.272 OA
ATOM     11  C   UNL d   1      63.690  88.858  90.624  0.00  0.00     0.102 C 
ATOM     12  O   UNL d   1      63.350  87.858  89.680  0.00  0.00    -0.134 OA
ENDBRANCH   7   9
ENDBRANCH   5   7
ENDBRANCH   3   5
TORSDOF 3
ENDMDL
MODEL 6
REMARK VINA RESULT:      -4.7     17.390     19.262
REMARK  3 active torsions:
REMARK  status: ('A' for Active; 'I' for Inactive)
REMARK    1  A    between atoms: C_3  and  C_5 
REMARK    2  A    between atoms: C_5  and  C_7 
REMARK    3  A    between atoms: C_7  and  C_9 
ROOT
ATOM      1  O   UNL d   1      61.247  89.753  96.296  0.00  0.00    -0.134 OA
ATOM      2  C   UNL d   1      62.124  90.422  95.404  0.00  0.00     0.102 C 
ATOM      3  C   UNL d   1      62.937  91.175  94.392  0.00  0.00     0.297 C 
ATOM      4  O   UNL d   1      62.195  91.764  93.538  0.00  0.00    -0.272 OA
ENDROOT
BRANCH   3   5
ATOM      5  C   UNL d   1      64.561  91.277  94.323  0.00  0.00     0.286 C 
ATOM      6  O   UNL d   1      64.938  91.939  93.293  0.00  0.00    -0.279 OA
BRANCH   5   7
ATOM      7  C   UNL d   1      65.824  90.721  95.281  0.00  0.00     0.286 C 
ATOM      8  O   UNL d   1      66.502  91.652  95.846  0.00  0.00    -0.279 OA
BRANCH   7   9
ATOM      9  C   UNL d   1      66.408  89.250  95.674  0.00  0.00     0.297 C 
ATOM     10  O   UNL d   1      66.598  88.916  96.890  0.00  0.00    -0.272 OA
ATOM     11  C   UNL d   1      66.781  88.151  94.724  0.00  0.00     0.102 C 
ATOM     12  O   UNL d   1      67.168  87.038  93.937  0.00  0.00    -0.134 OA
ENDBRANCH   7   9
ENDBRANCH   5   7
ENDBRANCH   3   5
TORSDOF 3
ENDMDL
MODEL 7
REMARK VINA RESULT:      -4.7     18.285     19.855
REMARK  3 active torsions:
REMARK  status: ('A' for Active; 'I' for Inactive)
REMARK    1  A    between atoms: C_3  and  C_5 
REMARK    2  A    between atoms: C_5  and  C_7 
REMARK    3  A    between atoms: C_7  and  C_9 
ROOT
ATOM      1  O   UNL d   1      61.354  89.779  96.318  0.00  0.00    -0.134 OA
ATOM      2  C   UNL d   1      62.103  90.380  95.274  0.00  0.00     0.102 C 
ATOM      3  C   UNL d   1      62.781  91.094  94.142  0.00  0.00     0.297 C 
ATOM      4  O   UNL d   1      62.009  91.948  93.595  0.00  0.00    -0.272 OA
ENDROOT
BRANCH   3   5
ATOM      5  C   UNL d   1      64.305  90.865  93.615  0.00  0.00     0.286 C 
ATOM      6  O   UNL d   1      64.901  91.983  93.426  0.00  0.00    -0.279 OA
BRANCH   5   7
ATOM      7  C   UNL d   1      65.250  89.518  93.273  0.00  0.00     0.286 C 
ATOM      8  O   UNL d   1      66.366  89.488  93.905  0.00  0.00    -0.279 OA
BRANCH   7   9
ATOM      9  C   UNL d   1      65.087  88.213  92.310  0.00  0.00     0.297 C 
ATOM     10  O   UNL d   1      65.640  87.102  92.601  0.00  0.00    -0.272 OA
ATOM     11  C   UNL d   1      64.312  88.138  91.027  0.00  0.00     0.102 C 
ATOM     12  O   UNL d   1      63.620  87.934  89.808  0.00  0.00    -0.134 OA
ENDBRANCH   7   9
ENDBRANCH   5   7
ENDBRANCH   3   5
TORSDOF 3
ENDMDL
MODEL 8
REMARK VINA RESULT:      -4.7     18.705     20.663
REMARK  3 active torsions:
REMARK  status: ('A' for Active; 'I' for Inactive)
REMARK    1  A    between atoms: C_3  and  C_5 
REMARK    2  A    between atoms: C_5  and  C_7 
REMARK    3  A    between atoms: C_7  and  C_9 
ROOT
ATOM      1  O   UNL d   1      59.369  88.595  93.909  0.00  0.00    -0.134 OA
ATOM      2  C   UNL d   1      60.429  89.389  94.416  0.00  0.00     0.102 C 
ATOM      3  C   UNL d   1      61.502  90.200  95.082  0.00  0.00     0.297 C 
ATOM      4  O   UNL d   1      61.391  90.175  96.352  0.00  0.00    -0.272 OA
ENDROOT
BRANCH   3   5
ATOM      5  C   UNL d   1      62.693  91.035  94.348  0.00  0.00     0.286 C 
ATOM      6  O   UNL d   1      62.214  91.937  93.573  0.00  0.00    -0.279 OA
BRANCH   5   7
ATOM      7  C   UNL d   1      64.372  90.979  94.379  0.00  0.00     0.286 C 
ATOM      8  O   UNL d   1      64.921  91.114  93.228  0.00  0.00    -0.279 OA
BRANCH   7   9
ATOM      9  C   UNL d   1      65.495  90.791  95.546  0.00  0.00     0.297 C 
ATOM     10  O   UNL d   1      66.439  91.634  95.698  0.00  0.00    -0.272 OA
ATOM     11  C   UNL d   1      65.573  89.672  96.542  0.00  0.00     0.102 C 
ATOM     12  O   UNL d   1      65.760  88.677  97.534  0.00  0.00    -0.134 OA
ENDBRANCH   7   9
ENDBRANCH   5   7
ENDBRANCH   3   5
TORSDOF 3
ENDMDL
MODEL 9
REMARK VINA RESULT:      -4.7     17.646     19.316
REMARK  3 active torsions:
REMARK  status: ('A' for Active; 'I' for Inactive)
REMARK    1  A    between atoms: C_3  and  C_5 
REMARK    2  A    between atoms: C_5  and  C_7 
REMARK    3  A    between atoms: C_7  and  C_9 
ROOT
ATOM      1  O   UNL d   1      61.388  89.965  96.252  0.00  0.00    -0.134 OA
ATOM      2  C   UNL d   1      62.128  90.533  95.184  0.00  0.00     0.102 C 
ATOM      3  C   UNL d   1      62.798  91.216  94.027  0.00  0.00     0.297 C 
ATOM      4  O   UNL d   1      62.037  92.086  93.490  0.00  0.00    -0.272 OA
ENDROOT
BRANCH   3   5
ATOM      5  C   UNL d   1      64.302  90.938  93.467  0.00  0.00     0.286 C 
ATOM      6  O   UNL d   1      64.948  92.034  93.318  0.00  0.00    -0.279 OA
BRANCH   5   7
ATOM      7  C   UNL d   1      65.176  89.565  93.050  0.00  0.00     0.286 C 
ATOM      8  O   UNL d   1      64.892  89.095  91.892  0.00  0.00    -0.279 OA
BRANCH   7   9
ATOM      9  C   UNL d   1      66.324  88.666  93.781  0.00  0.00     0.297 C 
ATOM     10  O   UNL d   1      66.976  87.777  93.141  0.00  0.00    -0.272 OA
ATOM     11  C   UNL d   1      66.750  88.752  95.217  0.00  0.00     0.102 C 
ATOM     12  O   UNL d   1      67.243  88.732  96.546  0.00  0.00    -0.134 OA
ENDBRANCH   7   9
ENDBRANCH   5   7
ENDBRANCH   3   5
TORSDOF 3
ENDMDL
MODEL 10
REMARK VINA RESULT:      -4.6     14.863     16.862
REMARK  3 active torsions:
REMARK  status: ('A' for Active; 'I' for Inactive)
REMARK    1  A    between atoms: C_3  and  C_5 
REMARK    2  A    between atoms: C_5  and  C_7 
REMARK    3  A    between atoms: C_7  and  C_9 
ROOT
ATOM      1  O   UNL d   1      79.906  66.324  90.413  0.00  0.00    -0.134 OA
ATOM      2  C   UNL d   1      78.974  66.444  89.351  0.00  0.00     0.102 C 
ATOM      3  C   UNL d   1      77.945  66.440  88.258  0.00  0.00     0.297 C 
ATOM      4  O   UNL d   1      77.304  65.339  88.221  0.00  0.00    -0.272 OA
ENDROOT
BRANCH   3   5
ATOM      5  C   UNL d   1      77.627  67.647  87.212  0.00  0.00     0.286 C 
ATOM      6  O   UNL d   1      78.339  67.538  86.153  0.00  0.00    -0.279 OA
BRANCH   5   7
ATOM      7  C   UNL d   1      76.596  68.973  87.212  0.00  0.00     0.286 C 
ATOM      8  O   UNL d   1      76.109  69.258  86.060  0.00  0.00    -0.279 OA
BRANCH   7   9
ATOM      9  C   UNL d   1      76.053  70.009  88.349  0.00  0.00     0.297 C 
ATOM     10  O   UNL d   1      76.722  71.045  88.675  0.00  0.00    -0.272 OA
ATOM     11  C   UNL d   1      74.774  69.898  89.124  0.00  0.00     0.102 C 
ATOM     12  O   UNL d   1      73.601  69.911  89.920  0.00  0.00    -0.134 OA
ENDBRANCH   7   9
ENDBRANCH   5   7
ENDBRANCH   3   5
TORSDOF 3
ENDMDL
MODEL 11
REMARK VINA RESULT:      -4.5     18.728     20.008
REMARK  3 active torsions:
REMARK  status: ('A' for Active; 'I' for Inactive)
REMARK    1  A    between atoms: C_3  and  C_5 
REMARK    2  A    between atoms: C_5  and  C_7 
REMARK    3  A    between atoms: C_7  and  C_9 
ROOT
ATOM      1  O   UNL d   1      64.596  88.023  96.761  0.00  0.00    -0.134 OA
ATOM      2  C   UNL d   1      64.659  89.297  96.142  0.00  0.00     0.102 C 
ATOM      3  C   UNL d   1      64.750  90.700  95.616  0.00  0.00     0.297 C 
ATOM      4  O   UNL d   1      64.978  91.539  96.549  0.00  0.00    -0.272 OA
ENDROOT
BRANCH   3   5
ATOM      5  C   UNL d   1      64.591  91.174  94.066  0.00  0.00     0.286 C 
ATOM      6  O   UNL d   1      65.529  91.980  93.731  0.00  0.00    -0.279 OA
BRANCH   5   7
ATOM      7  C   UNL d   1      63.495  90.849  92.835  0.00  0.00     0.286 C 
ATOM      8  O   UNL d   1      63.005  91.896  92.280  0.00  0.00    -0.279 OA
BRANCH   7   9
ATOM      9  C   UNL d   1      62.891  89.492  92.161  0.00  0.00     0.297 C 
ATOM     10  O   UNL d   1      61.791  88.987  92.561  0.00  0.00    -0.272 OA
ATOM     11  C   UNL d   1      63.503  88.697  91.046  0.00  0.00     0.102 C 
ATOM     12  O   UNL d   1      63.973  87.860  90.004  0.00  0.00    -0.134 OA
ENDBRANCH   7   9
ENDBRANCH   5   7
ENDBRANCH   3   5
TORSDOF 3
ENDMDL
MODEL 12
REMARK VINA RESULT:      -4.5     19.163     20.830
REMARK  3 active torsions:
REMARK  status: ('A' for Active; 'I' for Inactive)
REMARK    1  A    between atoms: C_3  and  C_5 
REMARK    2  A    between atoms: C_5  and  C_7 
REMARK    3  A    between atoms: C_7  and  C_9 
ROOT
ATOM      1  O   UNL d   1      59.199  88.500  94.008  0.00  0.00    -0.134 OA
ATOM      2  C   UNL d   1      60.291  89.319  94.393  0.00  0.00     0.102 C 
ATOM      3  C   UNL d   1      61.413  90.156  94.935  0.00  0.00     0.297 C 
ATOM      4  O   UNL d   1      61.440  90.139  96.210  0.00  0.00    -0.272 OA
ENDROOT
BRANCH   3   5
ATOM      5  C   UNL d   1      62.500  91.009  94.072  0.00  0.00     0.286 C 
ATOM      6  O   UNL d   1      61.979  92.083  93.607  0.00  0.00    -0.279 OA
BRANCH   5   7
ATOM      7  C   UNL d   1      64.117  90.799  93.665  0.00  0.00     0.286 C 
ATOM      8  O   UNL d   1      64.872  91.781  93.997  0.00  0.00    -0.279 OA
BRANCH   7   9
ATOM      9  C   UNL d   1      64.975  89.621  92.934  0.00  0.00     0.297 C 
ATOM     10  O   UNL d   1      66.066  89.188  93.434  0.00  0.00    -0.272 OA
ATOM     11  C   UNL d   1      64.627  88.923  91.653  0.00  0.00     0.102 C 
ATOM     12  O   UNL d   1      64.415  88.190  90.458  0.00  0.00    -0.134 OA
ENDBRANCH   7   9
ENDBRANCH   5   7
ENDBRANCH   3   5
TORSDOF 3
ENDMDL
MODEL 13
REMARK VINA RESULT:      -4.5     17.906     19.700
REMARK  3 active torsions:
REMARK  status: ('A' for Active; 'I' for Inactive)
REMARK    1  A    between atoms: C_3  and  C_5 
REMARK    2  A    between atoms: C_5  and  C_7 
REMARK    3  A    between atoms: C_7  and  C_9 
ROOT
ATOM      1  O   UNL d   1      63.386  87.855  89.676  0.00  0.00    -0.134 OA
ATOM      2  C   UNL d   1      63.201  88.705  90.795  0.00  0.00     0.102 C 
ATOM      3  C   UNL d   1      62.891  89.527  92.012  0.00  0.00     0.297 C 
ATOM      4  O   UNL d   1      61.849  89.103  92.613  0.00  0.00    -0.272 OA
ENDROOT
BRANCH   3   5
ATOM      5  C   UNL d   1      63.728  90.812  92.562  0.00  0.00     0.286 C 
ATOM      6  O   UNL d   1      63.164  91.910  92.220  0.00  0.00    -0.279 OA
BRANCH   5   7
ATOM      7  C   UNL d   1      65.135  91.013  93.458  0.00  0.00     0.286 C 
ATOM      8  O   UNL d   1      65.508  92.234  93.579  0.00  0.00    -0.279 OA
BRANCH   7   9
ATOM      9  C   UNL d   1      66.163  90.008  94.228  0.00  0.00     0.297 C 
ATOM     10  O   UNL d   1      66.836  90.396  95.239  0.00  0.00    -0.272 OA
ATOM     11  C   UNL d   1      66.445  88.577  93.879  0.00  0.00     0.102 C 
ATOM     12  O   UNL d   1      66.800  87.223  93.656  0.00  0.00    -0.134 OA
ENDBRANCH   7   9
ENDBRANCH   5   7
ENDBRANCH   3   5
TORSDOF 3
ENDMDL
MODEL 14
REMARK VINA RESULT:      -4.5      1.818      2.288
REMARK  3 active torsions:
REMARK  status: ('A' for Active; 'I' for Inactive)
REMARK    1  A    between atoms: C_3  and  C_5 
REMARK    2  A    between atoms: C_5  and  C_7 
REMARK    3  A    between atoms: C_7  and  C_9 
ROOT
ATOM      1  O   UNL d   1      77.633  79.550  99.639  0.00  0.00    -0.134 OA
ATOM      2  C   UNL d   1      78.636  80.346  99.029  0.00  0.00     0.102 C 
ATOM      3  C   UNL d   1      79.734  81.231  98.514  0.00  0.00     0.297 C 
ATOM      4  O   UNL d   1      80.336  81.833  99.462  0.00  0.00    -0.272 OA
ENDROOT
BRANCH   3   5
ATOM      5  C   UNL d   1      80.163  81.449  96.958  0.00  0.00     0.286 C 
ATOM      6  O   UNL d   1      79.133  81.613  96.214  0.00  0.00    -0.279 OA
BRANCH   5   7
ATOM      7  C   UNL d   1      81.624  81.505  96.129  0.00  0.00     0.286 C 
ATOM      8  O   UNL d   1      82.144  82.675  96.065  0.00  0.00    -0.279 OA
BRANCH   7   9
ATOM      9  C   UNL d   1      82.559  80.406  95.370  0.00  0.00     0.297 C 
ATOM     10  O   UNL d   1      82.642  80.372  94.099  0.00  0.00    -0.272 OA
ATOM     11  C   UNL d   1      83.400  79.346  96.018  0.00  0.00     0.102 C 
ATOM     12  O   UNL d   1      84.231  78.305  96.502  0.00  0.00    -0.134 OA
ENDBRANCH   7   9
ENDBRANCH   5   7
ENDBRANCH   3   5
TORSDOF 3
ENDMDL
MODEL 15
REMARK VINA RESULT:      -4.4     19.399     20.819
REMARK  3 active torsions:
REMARK  status: ('A' for Active; 'I' for Inactive)
REMARK    1  A    between atoms: C_3  and  C_5 
REMARK    2  A    between atoms: C_5  and  C_7 
REMARK    3  A    between atoms: C_7  and  C_9 
ROOT
ATOM      1  O   UNL d   1      64.625  91.673  97.148  0.00  0.00    -0.134 OA
ATOM      2  C   UNL d   1      63.598  91.147  96.324  0.00  0.00     0.102 C 
ATOM      3  C   UNL d   1      62.439  90.562  95.570  0.00  0.00     0.297 C 
ATOM      4  O   UNL d   1      61.517  90.168  96.358  0.00  0.00    -0.272 OA
ENDROOT
BRANCH   3   5
ATOM      5  C   UNL d   1      62.299  90.415  93.954  0.00  0.00     0.286 C 
ATOM      6  O   UNL d   1      62.361  91.558  93.380  0.00  0.00    -0.279 OA
BRANCH   5   7
ATOM      7  C   UNL d   1      62.097  89.126  92.896  0.00  0.00     0.286 C 
ATOM      8  O   UNL d   1      61.155  88.321  93.226  0.00  0.00    -0.279 OA
BRANCH   7   9
ATOM      9  C   UNL d   1      62.826  88.642  91.520  0.00  0.00     0.297 C 
ATOM     10  O   UNL d   1      62.804  89.364  90.469  0.00  0.00    -0.272 OA
ATOM     11  C   UNL d   1      63.578  87.361  91.307  0.00  0.00     0.102 C 
ATOM     12  O   UNL d   1      64.310  86.194  90.976  0.00  0.00    -0.134 OA
ENDBRANCH   7   9
ENDBRANCH   5   7
ENDBRANCH   3   5
TORSDOF 3
ENDMDL
MODEL 16
REMARK VINA RESULT:      -4.4      1.667      2.106
REMARK  3 active torsions:
REMARK  status: ('A' for Active; 'I' for Inactive)
REMARK    1  A    between atoms: C_3  and  C_5 
REMARK    2  A    between atoms: C_5  and  C_7 
REMARK    3  A    between atoms: C_7  and  C_9 
ROOT
ATOM      1  O   UNL d   1      77.735  80.101  99.931  0.00  0.00    -0.134 OA
ATOM      2  C   UNL d   1      78.280  80.972  98.953  0.00  0.00     0.102 C 
ATOM      3  C   UNL d   1      78.725  81.933  97.889  0.00  0.00     0.297 C 
ATOM      4  O   UNL d   1      77.735  82.532  97.354  0.00  0.00    -0.272 OA
ENDROOT
BRANCH   3   5
ATOM      5  C   UNL d   1      80.256  82.231  97.420  0.00  0.00     0.286 C 
ATOM      6  O   UNL d   1      80.825  83.066  98.207  0.00  0.00    -0.279 OA
BRANCH   5   7
ATOM      7  C   UNL d   1      81.234  81.699  96.162  0.00  0.00     0.286 C 
ATOM      8  O   UNL d   1      80.596  81.119  95.213  0.00  0.00    -0.279 OA
BRANCH   7   9
ATOM      9  C   UNL d   1      82.834  81.743  95.850  0.00  0.00     0.297 C 
ATOM     10  O   UNL d   1      83.294  81.437  94.701  0.00  0.00    -0.272 OA
ATOM     11  C   UNL d   1      83.923  82.125  96.809  0.00  0.00     0.102 C 
ATOM     12  O   UNL d   1      85.041  82.463  97.611  0.00  0.00    -0.134 OA
ENDBRANCH   7   9
ENDBRANCH   5   7
ENDBRANCH   3   5
TORSDOF 3
ENDMDL
MODEL 17
REMARK VINA RESULT:      -4.3     30.035     31.342
REMARK  3 active torsions:
REMARK  status: ('A' for Active; 'I' for Inactive)
REMARK    1  A    between atoms: C_3  and  C_5 
REMARK    2  A    between atoms: C_5  and  C_7 
REMARK    3  A    between atoms: C_7  and  C_9 
ROOT
ATOM      1  O   UNL d   1      59.983  72.327  80.597  0.00  0.00    -0.134 OA
ATOM      2  C   UNL d   1      58.778  72.335  81.345  0.00  0.00     0.102 C 
ATOM      3  C   UNL d   1      57.582  72.341  82.253  0.00  0.00     0.297 C 
ATOM      4  O   UNL d   1      57.924  72.316  83.481  0.00  0.00    -0.272 OA
ENDROOT
BRANCH   3   5
ATOM      5  C   UNL d   1      56.016  72.373  81.806  0.00  0.00     0.286 C 
ATOM      6  O   UNL d   1      55.309  73.028  82.650  0.00  0.00    -0.279 OA
BRANCH   5   7
ATOM      7  C   UNL d   1      55.140  71.752  80.514  0.00  0.00     0.286 C 
ATOM      8  O   UNL d   1      53.897  71.567  80.765  0.00  0.00    -0.279 OA
BRANCH   7   9
ATOM      9  C   UNL d   1      55.499  71.318  78.983  0.00  0.00     0.297 C 
ATOM     10  O   UNL d   1      55.076  71.993  77.987  0.00  0.00    -0.272 OA
ATOM     11  C   UNL d   1      56.325  70.141  78.556  0.00  0.00     0.102 C 
ATOM     12  O   UNL d   1      57.082  69.069  78.021  0.00  0.00    -0.134 OA
ENDBRANCH   7   9
ENDBRANCH   5   7
ENDBRANCH   3   5
TORSDOF 3
ENDMDL
MODEL 18
REMARK VINA RESULT:      -4.2      1.797      5.451
REMARK  3 active torsions:
REMARK  status: ('A' for Active; 'I' for Inactive)
REMARK    1  A    between atoms: C_3  and  C_5 
REMARK    2  A    between atoms: C_5  and  C_7 
REMARK    3  A    between atoms: C_7  and  C_9 
ROOT
ATOM      1  O   UNL d   1      82.965  79.643  94.794  0.00  0.00    -0.134 OA
ATOM      2  C   UNL d   1      82.556  80.675  95.676  0.00  0.00     0.102 C 
ATOM      3  C   UNL d   1      82.260  81.800  96.625  0.00  0.00     0.297 C 
ATOM      4  O   UNL d   1      83.327  82.378  97.015  0.00  0.00    -0.272 OA
ENDROOT
BRANCH   3   5
ATOM      5  C   UNL d   1      80.792  82.283  97.140  0.00  0.00     0.286 C 
ATOM      6  O   UNL d   1      80.893  83.230  97.997  0.00  0.00    -0.279 OA
BRANCH   5   7
ATOM      7  C   UNL d   1      79.211  81.827  96.805  0.00  0.00     0.286 C 
ATOM      8  O   UNL d   1      79.023  81.435  95.598  0.00  0.00    -0.279 OA
BRANCH   7   9
ATOM      9  C   UNL d   1      77.826  81.762  97.663  0.00  0.00     0.297 C 
ATOM     10  O   UNL d   1      76.867  82.570  97.436  0.00  0.00    -0.272 OA
ATOM     11  C   UNL d   1      77.504  80.803  98.772  0.00  0.00     0.102 C 
ATOM     12  O   UNL d   1      77.076  79.961  99.828  0.00  0.00    -0.134 OA
ENDBRANCH   7   9
ENDBRANCH   5   7
ENDBRANCH   3   5
TORSDOF 3
ENDMDL
MODEL 19
REMARK VINA RESULT:      -4.1     17.401     19.616
REMARK  3 active torsions:
REMARK  status: ('A' for Active; 'I' for Inactive)
REMARK    1  A    between atoms: C_3  and  C_5 
REMARK    2  A    between atoms: C_5  and  C_7 
REMARK    3  A    between atoms: C_7  and  C_9 
ROOT
ATOM      1  O   UNL d   1      67.245  85.969  95.623  0.00  0.00    -0.134 OA
ATOM      2  C   UNL d   1      66.501  87.176  95.602  0.00  0.00     0.102 C 
ATOM      3  C   UNL d   1      65.678  88.426  95.714  0.00  0.00     0.297 C 
ATOM      4  O   UNL d   1      65.145  88.537  96.867  0.00  0.00    -0.272 OA
ENDROOT
BRANCH   3   5
ATOM      5  C   UNL d   1      65.444  89.549  94.556  0.00  0.00     0.286 C 
ATOM      6  O   UNL d   1      66.294  89.415  93.607  0.00  0.00    -0.279 OA
BRANCH   5   7
ATOM      7  C   UNL d   1      64.361  90.814  94.335  0.00  0.00     0.286 C 
ATOM      8  O   UNL d   1      64.868  91.841  93.759  0.00  0.00    -0.279 OA
BRANCH   7   9
ATOM      9  C   UNL d   1      62.787  91.055  94.684  0.00  0.00     0.297 C 
ATOM     10  O   UNL d   1      62.147  92.049  94.206  0.00  0.00    -0.272 OA
ATOM     11  C   UNL d   1      61.922  90.197  95.559  0.00  0.00     0.102 C 
ATOM     12  O   UNL d   1      61.001  89.475  96.360  0.00  0.00    -0.134 OA
ENDBRANCH   7   9
ENDBRANCH   5   7
ENDBRANCH   3   5
TORSDOF 3
ENDMDL
MODEL 20
REMARK VINA RESULT:      -4.1      1.788      2.821
REMARK  3 active torsions:
REMARK  status: ('A' for Active; 'I' for Inactive)
REMARK    1  A    between atoms: C_3  and  C_5 
REMARK    2  A    between atoms: C_5  and  C_7 
REMARK    3  A    between atoms: C_7  and  C_9 
ROOT
ATOM      1  O   UNL d   1      77.395  78.980  98.099  0.00  0.00    -0.134 OA
ATOM      2  C   UNL d   1      78.016  80.147  97.583  0.00  0.00     0.102 C 
ATOM      3  C   UNL d   1      78.560  81.395  96.951  0.00  0.00     0.297 C 
ATOM      4  O   UNL d   1      77.768  81.857  96.065  0.00  0.00    -0.272 OA
ENDROOT
BRANCH   3   5
ATOM      5  C   UNL d   1      79.972  82.129  97.298  0.00  0.00     0.286 C 
ATOM      6  O   UNL d   1      79.784  83.177  98.010  0.00  0.00    -0.279 OA
BRANCH   5   7
ATOM      7  C   UNL d   1      81.584  81.825  96.937  0.00  0.00     0.286 C 
ATOM      8  O   UNL d   1      82.412  82.576  97.566  0.00  0.00    -0.279 OA
BRANCH   7   9
ATOM      9  C   UNL d   1      82.368  80.782  95.958  0.00  0.00     0.297 C 
ATOM     10  O   UNL d   1      83.152  79.894  96.429  0.00  0.00    -0.272 OA
ATOM     11  C   UNL d   1      82.283  80.723  94.462  0.00  0.00     0.102 C 
ATOM     12  O   UNL d   1      82.293  80.561  93.054  0.00  0.00    -0.134 OA
ENDBRANCH   7   9
ENDBRANCH   5   7
ENDBRANCH   3   5
TORSDOF 3
ENDMDL
