MODEL 1
REMARK VINA RESULT:      -1.1      0.000      0.000
REMARK  3 active torsions:
REMARK  status: ('A' for Active; 'I' for Inactive)
REMARK    1  A    between atoms: C_3  and  C_4 
REMARK    2  A    between atoms: C_3  and  N_13 
REMARK    3  A    between atoms: C_4  and  N_5 
ROOT
ATOM      1 CL   UNL d   1      67.206  88.740  77.744  0.00  0.00     0.000 Cl
ENDROOT
TORSDOF 3
ENDMDL
MODEL 2
REMARK VINA RESULT:      -1.1     16.649     16.649
REMARK  3 active torsions:
REMARK  status: ('A' for Active; 'I' for Inactive)
REMARK    1  A    between atoms: C_3  and  C_4 
REMARK    2  A    between atoms: C_3  and  N_13 
REMARK    3  A    between atoms: C_4  and  N_5 
ROOT
ATOM      1 CL   UNL d   1      79.243  78.208  82.364  0.00  0.00     0.000 Cl
ENDROOT
TORSDOF 3
ENDMDL
MODEL 3
REMARK VINA RESULT:      -1.0     32.959     32.959
REMARK  3 active torsions:
REMARK  status: ('A' for Active; 'I' for Inactive)
REMARK    1  A    between atoms: C_3  and  C_4 
REMARK    2  A    between atoms: C_3  and  N_13 
REMARK    3  A    between atoms: C_4  and  N_5 
ROOT
ATOM      1 CL   UNL d   1      80.069  80.297 106.890  0.00  0.00     0.000 Cl
ENDROOT
TORSDOF 3
ENDMDL
MODEL 4
REMARK VINA RESULT:      -0.9     29.525     29.525
REMARK  3 active torsions:
REMARK  status: ('A' for Active; 'I' for Inactive)
REMARK    1  A    between atoms: C_3  and  C_4 
REMARK    2  A    between atoms: C_3  and  N_13 
REMARK    3  A    between atoms: C_4  and  N_5 
ROOT
ATOM      1 CL   UNL d   1      56.591  63.066  87.736  0.00  0.00     0.000 Cl
ENDROOT
TORSDOF 3
ENDMDL
MODEL 5
REMARK VINA RESULT:      -0.9     19.389     19.389
REMARK  3 active torsions:
REMARK  status: ('A' for Active; 'I' for Inactive)
REMARK    1  A    between atoms: C_3  and  C_4 
REMARK    2  A    between atoms: C_3  and  N_13 
REMARK    3  A    between atoms: C_4  and  N_5 
ROOT
ATOM      1 CL   UNL d   1      57.094  74.249  85.723  0.00  0.00     0.000 Cl
ENDROOT
TORSDOF 3
ENDMDL
MODEL 6
REMARK VINA RESULT:      -0.9     26.728     26.728
REMARK  3 active torsions:
REMARK  status: ('A' for Active; 'I' for Inactive)
REMARK    1  A    between atoms: C_3  and  C_4 
REMARK    2  A    between atoms: C_3  and  N_13 
REMARK    3  A    between atoms: C_4  and  N_5 
ROOT
ATOM      1 CL   UNL d   1      86.266  81.035  94.823  0.00  0.00     0.000 Cl
ENDROOT
TORSDOF 3
ENDMDL
MODEL 7
REMARK VINA RESULT:      -0.9     27.087     27.087
REMARK  3 active torsions:
REMARK  status: ('A' for Active; 'I' for Inactive)
REMARK    1  A    between atoms: C_3  and  C_4 
REMARK    2  A    between atoms: C_3  and  N_13 
REMARK    3  A    between atoms: C_4  and  N_5 
ROOT
ATOM      1 CL   UNL d   1      84.881  82.611  97.332  0.00  0.00     0.000 Cl
ENDROOT
TORSDOF 3
ENDMDL
MODEL 8
REMARK VINA RESULT:      -0.8     32.044     32.044
REMARK  3 active torsions:
REMARK  status: ('A' for Active; 'I' for Inactive)
REMARK    1  A    between atoms: C_3  and  C_4 
REMARK    2  A    between atoms: C_3  and  N_13 
REMARK    3  A    between atoms: C_4  and  N_5 
ROOT
ATOM      1 CL   UNL d   1      68.307  68.389 102.471  0.00  0.00     0.000 Cl
ENDROOT
TORSDOF 3
ENDMDL
MODEL 9
REMARK VINA RESULT:      -0.8     25.212     25.212
REMARK  3 active torsions:
REMARK  status: ('A' for Active; 'I' for Inactive)
REMARK    1  A    between atoms: C_3  and  C_4 
REMARK    2  A    between atoms: C_3  and  N_13 
REMARK    3  A    between atoms: C_4  and  N_5 
ROOT
ATOM      1 CL   UNL d   1      78.276  67.757  86.276  0.00  0.00     0.000 Cl
ENDROOT
TORSDOF 3
ENDMDL
MODEL 10
REMARK VINA RESULT:      -0.8     31.724     31.724
REMARK  3 active torsions:
REMARK  status: ('A' for Active; 'I' for Inactive)
REMARK    1  A    between atoms: C_3  and  C_4 
REMARK    2  A    between atoms: C_3  and  N_13 
REMARK    3  A    between atoms: C_4  and  N_5 
ROOT
ATOM      1 CL   UNL d   1      70.945  75.550 106.351  0.00  0.00     0.000 Cl
ENDROOT
TORSDOF 3
ENDMDL
MODEL 11
REMARK VINA RESULT:      -0.8     16.722     16.722
REMARK  3 active torsions:
REMARK  status: ('A' for Active; 'I' for Inactive)
REMARK    1  A    between atoms: C_3  and  C_4 
REMARK    2  A    between atoms: C_3  and  N_13 
REMARK    3  A    between atoms: C_4  and  N_5 
ROOT
ATOM      1 CL   UNL d   1      61.874  73.120  80.432  0.00  0.00     0.000 Cl
ENDROOT
TORSDOF 3
ENDMDL
MODEL 12
REMARK VINA RESULT:      -0.8     29.510     29.510
REMARK  3 active torsions:
REMARK  status: ('A' for Active; 'I' for Inactive)
REMARK    1  A    between atoms: C_3  and  C_4 
REMARK    2  A    between atoms: C_3  and  N_13 
REMARK    3  A    between atoms: C_4  and  N_5 
ROOT
ATOM      1 CL   UNL d   1      56.685  70.845  98.717  0.00  0.00     0.000 Cl
ENDROOT
TORSDOF 3
ENDMDL
MODEL 13
REMARK VINA RESULT:      -0.8     27.540     27.540
REMARK  3 active torsions:
REMARK  status: ('A' for Active; 'I' for Inactive)
REMARK    1  A    between atoms: C_3  and  C_4 
REMARK    2  A    between atoms: C_3  and  N_13 
REMARK    3  A    between atoms: C_4  and  N_5 
ROOT
ATOM      1 CL   UNL d   1      52.334  66.145  82.913  0.00  0.00     0.000 Cl
ENDROOT
TORSDOF 3
ENDMDL
MODEL 14
REMARK VINA RESULT:      -0.8     19.521     19.521
REMARK  3 active torsions:
REMARK  status: ('A' for Active; 'I' for Inactive)
REMARK    1  A    between atoms: C_3  and  C_4 
REMARK    2  A    between atoms: C_3  and  N_13 
REMARK    3  A    between atoms: C_4  and  N_5 
ROOT
ATOM      1 CL   UNL d   1      58.305  72.877  84.828  0.00  0.00     0.000 Cl
ENDROOT
TORSDOF 3
ENDMDL
MODEL 15
REMARK VINA RESULT:      -0.7     27.281     27.281
REMARK  3 active torsions:
REMARK  status: ('A' for Active; 'I' for Inactive)
REMARK    1  A    between atoms: C_3  and  C_4 
REMARK    2  A    between atoms: C_3  and  N_13 
REMARK    3  A    between atoms: C_4  and  N_5 
ROOT
ATOM      1 CL   UNL d   1      54.904  72.839  96.184  0.00  0.00     0.000 Cl
ENDROOT
TORSDOF 3
ENDMDL
MODEL 16
REMARK VINA RESULT:      -0.7     24.132     24.132
REMARK  3 active torsions:
REMARK  status: ('A' for Active; 'I' for Inactive)
REMARK    1  A    between atoms: C_3  and  C_4 
REMARK    2  A    between atoms: C_3  and  N_13 
REMARK    3  A    between atoms: C_4  and  N_5 
ROOT
ATOM      1 CL   UNL d   1      79.117  86.785  98.640  0.00  0.00     0.000 Cl
ENDROOT
TORSDOF 3
ENDMDL
MODEL 17
REMARK VINA RESULT:      -0.7     27.915     27.915
REMARK  3 active torsions:
REMARK  status: ('A' for Active; 'I' for Inactive)
REMARK    1  A    between atoms: C_3  and  C_4 
REMARK    2  A    between atoms: C_3  and  N_13 
REMARK    3  A    between atoms: C_4  and  N_5 
ROOT
ATOM      1 CL   UNL d   1      80.405  64.169  76.605  0.00  0.00     0.000 Cl
ENDROOT
TORSDOF 3
ENDMDL
MODEL 18
REMARK VINA RESULT:      -0.7     23.094     23.094
REMARK  3 active torsions:
REMARK  status: ('A' for Active; 'I' for Inactive)
REMARK    1  A    between atoms: C_3  and  C_4 
REMARK    2  A    between atoms: C_3  and  N_13 
REMARK    3  A    between atoms: C_4  and  N_5 
ROOT
ATOM      1 CL   UNL d   1      75.661  69.203  86.694  0.00  0.00     0.000 Cl
ENDROOT
TORSDOF 3
ENDMDL
MODEL 19
REMARK VINA RESULT:      -0.7     18.742     18.742
REMARK  3 active torsions:
REMARK  status: ('A' for Active; 'I' for Inactive)
REMARK    1  A    between atoms: C_3  and  C_4 
REMARK    2  A    between atoms: C_3  and  N_13 
REMARK    3  A    between atoms: C_4  and  N_5 
ROOT
ATOM      1 CL   UNL d   1      59.076  72.184  81.068  0.00  0.00     0.000 Cl
ENDROOT
TORSDOF 3
ENDMDL
MODEL 20
REMARK VINA RESULT:      -0.7     20.699     20.699
REMARK  3 active torsions:
REMARK  status: ('A' for Active; 'I' for Inactive)
REMARK    1  A    between atoms: C_3  and  C_4 
REMARK    2  A    between atoms: C_3  and  N_13 
REMARK    3  A    between atoms: C_4  and  N_5 
ROOT
ATOM      1 CL   UNL d   1      55.848  72.128  82.591  0.00  0.00     0.000 Cl
ENDROOT
TORSDOF 3
ENDMDL
