MODEL 1
REMARK VINA RESULT:      -5.8      0.000      0.000
REMARK  8 active torsions:
REMARK  status: ('A' for Active; 'I' for Inactive)
REMARK    1  A    between atoms: C_1  and  C_3 
REMARK    2  A    between atoms: C_3  and  C_4 
REMARK    3  A    between atoms: C_3  and  C_13 
REMARK    4  A    between atoms: C_3  and  C_19 
REMARK    5  A    between atoms: C_4  and  C_5 
REMARK    6  A    between atoms: C_5  and  N_6 
REMARK    7  A    between atoms: N_6  and  C_7 
REMARK    8  A    between atoms: N_6  and  C_10 
ROOT
ATOM      1  C   UNL d   1      75.595  70.687  89.842  0.00  0.00     0.173 C 
ENDROOT
BRANCH   1   2
ATOM      2  C   UNL d   1      74.974  70.193  90.066  0.00  0.00     0.471 C 
ATOM      3  O   UNL d   1      73.800  69.972  89.512  0.00  0.00    -0.181 OA
ATOM      4  N   UNL d   1      74.806  69.340  91.488  0.00  0.00     0.654 N 
ENDBRANCH   1   2
BRANCH   1   5
ATOM      5  C   UNL d   1      75.264  71.302  90.281  0.00  0.00    -0.062 C 
BRANCH   5   6
ATOM      6  C   UNL d   1      74.552  72.566  91.121  0.00  0.00    -0.014 C 
BRANCH   6   7
ATOM      7  N   UNL d   1      73.975  73.659  91.892  0.00  0.00    -0.217 NA
BRANCH   7   8
ATOM      8  C   UNL d   1      73.570  74.753  91.082  0.00  0.00     0.070 C 
ATOM      9  C   UNL d   1      72.148  75.204  90.853  0.00  0.00     0.018 C 
ATOM     10  C   UNL d   1      74.599  75.644  90.418  0.00  0.00     0.018 C 
ENDBRANCH   7   8
BRANCH   7  11
ATOM     11  C   UNL d   1      74.680  74.054  93.055  0.00  0.00     0.070 C 
ATOM     12  C   UNL d   1      73.919  74.717  94.185  0.00  0.00     0.018 C 
ATOM     13  C   UNL d   1      75.960  73.383  93.502  0.00  0.00     0.018 C 
ENDBRANCH   7  11
ENDBRANCH   6   7
ENDBRANCH   5   6
ENDBRANCH   1   5
BRANCH   1  14
ATOM     14  C   UNL d   1      75.927  70.071  89.403  0.00  0.00     0.078 A 
ATOM     15  C   UNL d   1      75.685  69.553  87.930  0.00  0.00     0.016 A 
ATOM     16  C   UNL d   1      76.281  68.471  87.277  0.00  0.00     0.003 A 
ATOM     17  C   UNL d   1      77.206  67.702  87.952  0.00  0.00     0.021 A 
ATOM     18  C   UNL d   1      77.509  68.031  89.258  0.00  0.00     0.099 A 
ATOM     19  N   UNL d   1      76.966  69.076  89.954  0.00  0.00    -0.247 NA
ENDBRANCH   1  14
BRANCH   1  20
ATOM     20  C   UNL d   1      76.218  71.181  89.618  0.00  0.00    -0.002 A 
ATOM     21  C   UNL d   1      76.405  72.074  88.307  0.00  0.00    -0.003 A 
ATOM     22  C   UNL d   1      77.432  72.960  87.947  0.00  0.00    -0.000 A 
ATOM     23  C   UNL d   1      78.484  73.178  88.825  0.00  0.00    -0.000 A 
ATOM     24  C   UNL d   1      78.533  72.547  90.060  0.00  0.00    -0.000 A 
ATOM     25  C   UNL d   1      77.509  71.659  90.425  0.00  0.00    -0.003 A 
ENDBRANCH   1  20
TORSDOF 8
ENDMDL
MODEL 2
REMARK VINA RESULT:      -5.6      1.897      3.262
REMARK  8 active torsions:
REMARK  status: ('A' for Active; 'I' for Inactive)
REMARK    1  A    between atoms: C_1  and  C_3 
REMARK    2  A    between atoms: C_3  and  C_4 
REMARK    3  A    between atoms: C_3  and  C_13 
REMARK    4  A    between atoms: C_3  and  C_19 
REMARK    5  A    between atoms: C_4  and  C_5 
REMARK    6  A    between atoms: C_5  and  N_6 
REMARK    7  A    between atoms: N_6  and  C_7 
REMARK    8  A    between atoms: N_6  and  C_10 
ROOT
ATOM      1  C   UNL d   1      76.539  71.541  88.894  0.00  0.00     0.173 C 
ENDROOT
BRANCH   1   2
ATOM      2  C   UNL d   1      76.813  71.991  88.260  0.00  0.00     0.471 C 
ATOM      3  O   UNL d   1      76.336  72.160  87.044  0.00  0.00    -0.181 OA
ATOM      4  N   UNL d   1      78.269  72.794  88.129  0.00  0.00     0.654 N 
ENDBRANCH   1   2
BRANCH   1   5
ATOM      5  C   UNL d   1      76.283  72.228  89.271  0.00  0.00    -0.062 C 
BRANCH   5   6
ATOM      6  C   UNL d   1      75.749  73.650  89.981  0.00  0.00    -0.014 C 
BRANCH   6   7
ATOM      7  N   UNL d   1      75.244  74.855  90.625  0.00  0.00    -0.217 NA
BRANCH   7   8
ATOM      8  C   UNL d   1      76.142  75.383  91.592  0.00  0.00     0.070 C 
ATOM      9  C   UNL d   1      76.569  76.826  91.705  0.00  0.00     0.018 C 
ATOM     10  C   UNL d   1      76.702  74.499  92.687  0.00  0.00     0.018 C 
ENDBRANCH   7   8
BRANCH   7  11
ATOM     11  C   UNL d   1      73.900  74.819  91.070  0.00  0.00     0.070 C 
ATOM     12  C   UNL d   1      72.993  75.993  90.761  0.00  0.00     0.018 C 
ATOM     13  C   UNL d   1      73.153  73.526  91.307  0.00  0.00     0.018 C 
ENDBRANCH   7  11
ENDBRANCH   6   7
ENDBRANCH   5   6
ENDBRANCH   1   5
BRANCH   1  14
ATOM     14  C   UNL d   1      76.796  70.853  88.515  0.00  0.00     0.078 A 
ATOM     15  C   UNL d   1      76.106  69.877  87.481  0.00  0.00     0.016 A 
ATOM     16  C   UNL d   1      76.616  68.707  86.912  0.00  0.00     0.003 A 
ATOM     17  C   UNL d   1      77.881  68.283  87.263  0.00  0.00     0.021 A 
ATOM     18  C   UNL d   1      78.600  69.034  88.170  0.00  0.00     0.099 A 
ATOM     19  N   UNL d   1      78.163  70.187  88.761  0.00  0.00    -0.247 NA
ENDBRANCH   1  14
BRANCH   1  20
ATOM     20  C   UNL d   1      76.264  71.089  89.528  0.00  0.00    -0.002 A 
ATOM     21  C   UNL d   1      76.930  70.799  90.951  0.00  0.00    -0.003 A 
ATOM     22  C   UNL d   1      76.443  70.081  92.055  0.00  0.00    -0.000 A 
ATOM     23  C   UNL d   1      75.175  69.520  91.999  0.00  0.00    -0.000 A 
ATOM     24  C   UNL d   1      74.372  69.667  90.877  0.00  0.00    -0.000 A 
ATOM     25  C   UNL d   1      74.854  70.384  89.770  0.00  0.00    -0.003 A 
ENDBRANCH   1  20
TORSDOF 8
ENDMDL
MODEL 3
REMARK VINA RESULT:      -5.6      9.362     11.746
REMARK  8 active torsions:
REMARK  status: ('A' for Active; 'I' for Inactive)
REMARK    1  A    between atoms: C_1  and  C_3 
REMARK    2  A    between atoms: C_3  and  C_4 
REMARK    3  A    between atoms: C_3  and  C_13 
REMARK    4  A    between atoms: C_3  and  C_19 
REMARK    5  A    between atoms: C_4  and  C_5 
REMARK    6  A    between atoms: C_5  and  N_6 
REMARK    7  A    between atoms: N_6  and  C_7 
REMARK    8  A    between atoms: N_6  and  C_10 
ROOT
ATOM      1  C   UNL d   1      82.349  80.004  95.408  0.00  0.00     0.173 C 
ENDROOT
BRANCH   1   2
ATOM      2  C   UNL d   1      82.281  80.696  95.851  0.00  0.00     0.471 C 
ATOM      3  O   UNL d   1      82.004  80.889  97.124  0.00  0.00    -0.181 OA
ATOM      4  N   UNL d   1      82.266  82.269  95.296  0.00  0.00     0.654 N 
ENDBRANCH   1   2
BRANCH   1   5
ATOM      5  C   UNL d   1      81.527  79.934  95.392  0.00  0.00    -0.062 C 
BRANCH   5   6
ATOM      6  C   UNL d   1      79.856  79.838  95.313  0.00  0.00    -0.014 C 
BRANCH   6   7
ATOM      7  N   UNL d   1      78.407  79.696  95.246  0.00  0.00    -0.217 NA
BRANCH   7   8
ATOM      8  C   UNL d   1      77.999  78.438  94.727  0.00  0.00     0.070 C 
ATOM      9  C   UNL d   1      76.630  77.822  94.881  0.00  0.00     0.018 C 
ATOM     10  C   UNL d   1      78.936  77.619  93.865  0.00  0.00     0.018 C 
ENDBRANCH   7   8
BRANCH   7  11
ATOM     11  C   UNL d   1      77.688  80.788  94.700  0.00  0.00     0.070 C 
ATOM     12  C   UNL d   1      77.473  82.023  95.550  0.00  0.00     0.018 C 
ATOM     13  C   UNL d   1      77.620  81.059  93.214  0.00  0.00     0.018 C 
ENDBRANCH   7  11
ENDBRANCH   6   7
ENDBRANCH   5   6
ENDBRANCH   1   5
BRANCH   1  14
ATOM     14  C   UNL d   1      83.172  80.075  95.425  0.00  0.00     0.078 A 
ATOM     15  C   UNL d   1      84.212  80.728  94.430  0.00  0.00     0.016 A 
ATOM     16  C   UNL d   1      85.605  80.773  94.531  0.00  0.00     0.003 A 
ATOM     17  C   UNL d   1      86.222  80.180  95.613  0.00  0.00     0.021 A 
ATOM     18  C   UNL d   1      85.436  79.559  96.562  0.00  0.00     0.099 A 
ATOM     19  N   UNL d   1      84.071  79.480  96.525  0.00  0.00    -0.247 NA
ENDBRANCH   1  14
BRANCH   1  20
ATOM     20  C   UNL d   1      82.418  79.311  94.965  0.00  0.00    -0.002 A 
ATOM     21  C   UNL d   1      82.444  77.785  95.436  0.00  0.00    -0.003 A 
ATOM     22  C   UNL d   1      82.503  76.601  94.685  0.00  0.00    -0.000 A 
ATOM     23  C   UNL d   1      82.515  76.671  93.299  0.00  0.00    -0.000 A 
ATOM     24  C   UNL d   1      82.458  77.891  92.640  0.00  0.00    -0.000 A 
ATOM     25  C   UNL d   1      82.400  79.079  93.387  0.00  0.00    -0.003 A 
ENDBRANCH   1  20
TORSDOF 8
ENDMDL
MODEL 4
REMARK VINA RESULT:      -5.6      3.444      5.906
REMARK  8 active torsions:
REMARK  status: ('A' for Active; 'I' for Inactive)
REMARK    1  A    between atoms: C_1  and  C_3 
REMARK    2  A    between atoms: C_3  and  C_4 
REMARK    3  A    between atoms: C_3  and  C_13 
REMARK    4  A    between atoms: C_3  and  C_19 
REMARK    5  A    between atoms: C_4  and  C_5 
REMARK    6  A    between atoms: C_5  and  N_6 
REMARK    7  A    between atoms: N_6  and  C_7 
REMARK    8  A    between atoms: N_6  and  C_10 
ROOT
ATOM      1  C   UNL d   1      78.561  66.308  89.445  0.00  0.00     0.173 C 
ENDROOT
BRANCH   1   2
ATOM      2  C   UNL d   1      78.367  66.057  88.685  0.00  0.00     0.471 C 
ATOM      3  O   UNL d   1      78.894  66.350  87.513  0.00  0.00    -0.181 OA
ATOM      4  N   UNL d   1      77.036  65.173  88.206  0.00  0.00     0.654 N 
ENDBRANCH   1   2
BRANCH   1   5
ATOM      5  C   UNL d   1      78.119  66.995  89.332  0.00  0.00    -0.062 C 
BRANCH   5   6
ATOM      6  C   UNL d   1      77.198  68.385  89.163  0.00  0.00    -0.014 C 
BRANCH   6   7
ATOM      7  N   UNL d   1      76.431  69.620  89.058  0.00  0.00    -0.217 NA
BRANCH   7   8
ATOM      8  C   UNL d   1      77.235  70.744  88.730  0.00  0.00     0.070 C 
ATOM      9  C   UNL d   1      76.733  72.065  88.201  0.00  0.00     0.018 C 
ATOM     10  C   UNL d   1      78.729  70.722  88.979  0.00  0.00     0.018 C 
ENDBRANCH   7   8
BRANCH   7  11
ATOM     11  C   UNL d   1      75.503  69.878  90.096  0.00  0.00     0.070 C 
ATOM     12  C   UNL d   1      74.037  70.034  89.747  0.00  0.00     0.018 C 
ATOM     13  C   UNL d   1      75.740  69.454  91.528  0.00  0.00     0.018 C 
ENDBRANCH   7  11
ENDBRANCH   6   7
ENDBRANCH   5   6
ENDBRANCH   1   5
BRANCH   1  14
ATOM     14  C   UNL d   1      79.004  65.619  89.558  0.00  0.00     0.078 A 
ATOM     15  C   UNL d   1      78.653  64.210  90.181  0.00  0.00     0.016 A 
ATOM     16  C   UNL d   1      79.487  63.103  90.359  0.00  0.00     0.003 A 
ATOM     17  C   UNL d   1      80.808  63.185  89.970  0.00  0.00     0.021 A 
ATOM     18  C   UNL d   1      81.261  64.366  89.417  0.00  0.00     0.099 A 
ATOM     19  N   UNL d   1      80.499  65.484  89.213  0.00  0.00    -0.247 NA
ENDBRANCH   1  14
BRANCH   1  20
ATOM     20  C   UNL d   1      78.756  66.559  90.208  0.00  0.00    -0.002 A 
ATOM     21  C   UNL d   1      79.920  67.532  90.706  0.00  0.00    -0.003 A 
ATOM     22  C   UNL d   1      80.222  68.007  91.992  0.00  0.00    -0.000 A 
ATOM     23  C   UNL d   1      79.413  67.646  93.061  0.00  0.00    -0.000 A 
ATOM     24  C   UNL d   1      78.303  66.833  92.880  0.00  0.00    -0.000 A 
ATOM     25  C   UNL d   1      77.997  66.354  91.596  0.00  0.00    -0.003 A 
ENDBRANCH   1  20
TORSDOF 8
ENDMDL
MODEL 5
REMARK VINA RESULT:      -5.5      2.496      3.922
REMARK  8 active torsions:
REMARK  status: ('A' for Active; 'I' for Inactive)
REMARK    1  A    between atoms: C_1  and  C_3 
REMARK    2  A    between atoms: C_3  and  C_4 
REMARK    3  A    between atoms: C_3  and  C_13 
REMARK    4  A    between atoms: C_3  and  C_19 
REMARK    5  A    between atoms: C_4  and  C_5 
REMARK    6  A    between atoms: C_5  and  N_6 
REMARK    7  A    between atoms: N_6  and  C_7 
REMARK    8  A    between atoms: N_6  and  C_10 
ROOT
ATOM      1  C   UNL d   1      77.970  69.847  89.589  0.00  0.00     0.173 C 
ENDROOT
BRANCH   1   2
ATOM      2  C   UNL d   1      78.781  69.921  89.464  0.00  0.00     0.471 C 
ATOM      3  O   UNL d   1      79.469  70.198  88.376  0.00  0.00    -0.181 OA
ATOM      4  N   UNL d   1      80.018  69.554  90.521  0.00  0.00     0.654 N 
ENDBRANCH   1   2
BRANCH   1   5
ATOM      5  C   UNL d   1      77.944  70.619  89.880  0.00  0.00    -0.062 C 
BRANCH   5   6
ATOM      6  C   UNL d   1      77.857  72.204  90.419  0.00  0.00    -0.014 C 
BRANCH   6   7
ATOM      7  N   UNL d   1      77.733  73.589  90.853  0.00  0.00    -0.217 NA
BRANCH   7   8
ATOM      8  C   UNL d   1      76.422  74.107  90.682  0.00  0.00     0.070 C 
ATOM      9  C   UNL d   1      76.014  75.551  90.841  0.00  0.00     0.018 C 
ATOM     10  C   UNL d   1      75.292  73.209  90.222  0.00  0.00     0.018 C 
ENDBRANCH   7   8
BRANCH   7  11
ATOM     11  C   UNL d   1      78.748  74.480  90.424  0.00  0.00     0.070 C 
ATOM     12  C   UNL d   1      79.887  74.803  91.369  0.00  0.00     0.018 C 
ATOM     13  C   UNL d   1      79.098  74.678  88.967  0.00  0.00     0.018 C 
ENDBRANCH   7  11
ENDBRANCH   6   7
ENDBRANCH   5   6
ENDBRANCH   1   5
BRANCH   1  14
ATOM     14  C   UNL d   1      77.995  69.075  89.298  0.00  0.00     0.078 A 
ATOM     15  C   UNL d   1      77.888  68.475  87.840  0.00  0.00     0.016 A 
ATOM     16  C   UNL d   1      77.913  67.135  87.444  0.00  0.00     0.003 A 
ATOM     17  C   UNL d   1      78.036  66.151  88.403  0.00  0.00     0.021 A 
ATOM     18  C   UNL d   1      78.129  66.529  89.727  0.00  0.00     0.099 A 
ATOM     19  N   UNL d   1      78.113  67.819  90.182  0.00  0.00    -0.247 NA
ENDBRANCH   1  14
BRANCH   1  20
ATOM     20  C   UNL d   1      77.157  69.773  89.715  0.00  0.00    -0.002 A 
ATOM     21  C   UNL d   1      76.337  69.573  91.071  0.00  0.00    -0.003 A 
ATOM     22  C   UNL d   1      74.954  69.504  91.297  0.00  0.00    -0.000 A 
ATOM     23  C   UNL d   1      74.079  69.650  90.230  0.00  0.00    -0.000 A 
ATOM     24  C   UNL d   1      74.546  69.878  88.943  0.00  0.00    -0.000 A 
ATOM     25  C   UNL d   1      75.929  69.947  88.711  0.00  0.00    -0.003 A 
ENDBRANCH   1  20
TORSDOF 8
ENDMDL
MODEL 6
REMARK VINA RESULT:      -5.5      2.404      4.004
REMARK  8 active torsions:
REMARK  status: ('A' for Active; 'I' for Inactive)
REMARK    1  A    between atoms: C_1  and  C_3 
REMARK    2  A    between atoms: C_3  and  C_4 
REMARK    3  A    between atoms: C_3  and  C_13 
REMARK    4  A    between atoms: C_3  and  C_19 
REMARK    5  A    between atoms: C_4  and  C_5 
REMARK    6  A    between atoms: C_5  and  N_6 
REMARK    7  A    between atoms: N_6  and  C_7 
REMARK    8  A    between atoms: N_6  and  C_10 
ROOT
ATOM      1  C   UNL d   1      77.893  69.848  89.471  0.00  0.00     0.173 C 
ENDROOT
BRANCH   1   2
ATOM      2  C   UNL d   1      78.697  69.910  89.304  0.00  0.00     0.471 C 
ATOM      3  O   UNL d   1      79.349  69.909  88.159  0.00  0.00    -0.181 OA
ATOM      4  N   UNL d   1      79.972  69.874  90.379  0.00  0.00     0.654 N 
ENDBRANCH   1   2
BRANCH   1   5
ATOM      5  C   UNL d   1      77.850  70.666  89.573  0.00  0.00    -0.062 C 
BRANCH   5   6
ATOM      6  C   UNL d   1      77.700  72.321  89.790  0.00  0.00    -0.014 C 
BRANCH   6   7
ATOM      7  N   UNL d   1      77.535  73.762  89.931  0.00  0.00    -0.217 NA
BRANCH   7   8
ATOM      8  C   UNL d   1      78.717  74.412  90.376  0.00  0.00     0.070 C 
ATOM      9  C   UNL d   1      79.388  74.207  91.712  0.00  0.00     0.018 C 
ATOM     10  C   UNL d   1      79.473  75.351  89.459  0.00  0.00     0.018 C 
ENDBRANCH   7   8
BRANCH   7  11
ATOM     11  C   UNL d   1      76.367  74.203  90.599  0.00  0.00     0.070 C 
ATOM     12  C   UNL d   1      76.104  75.691  90.713  0.00  0.00     0.018 C 
ATOM     13  C   UNL d   1      75.115  73.360  90.697  0.00  0.00     0.018 C 
ENDBRANCH   7  11
ENDBRANCH   6   7
ENDBRANCH   5   6
ENDBRANCH   1   5
BRANCH   1  14
ATOM     14  C   UNL d   1      77.935  69.029  89.370  0.00  0.00     0.078 A 
ATOM     15  C   UNL d   1      77.701  68.091  88.120  0.00  0.00     0.016 A 
ATOM     16  C   UNL d   1      77.768  66.697  88.051  0.00  0.00     0.003 A 
ATOM     17  C   UNL d   1      78.064  65.980  89.192  0.00  0.00     0.021 A 
ATOM     18  C   UNL d   1      78.283  66.669  90.366  0.00  0.00     0.099 A 
ATOM     19  N   UNL d   1      78.235  68.029  90.502  0.00  0.00    -0.247 NA
ENDBRANCH   1  14
BRANCH   1  20
ATOM     20  C   UNL d   1      77.086  69.785  89.639  0.00  0.00    -0.002 A 
ATOM     21  C   UNL d   1      76.331  69.657  91.041  0.00  0.00    -0.003 A 
ATOM     22  C   UNL d   1      74.960  69.608  91.335  0.00  0.00    -0.000 A 
ATOM     23  C   UNL d   1      74.036  69.708  90.305  0.00  0.00    -0.000 A 
ATOM     24  C   UNL d   1      74.442  69.869  88.988  0.00  0.00    -0.000 A 
ATOM     25  C   UNL d   1      75.813  69.918  88.687  0.00  0.00    -0.003 A 
ENDBRANCH   1  20
TORSDOF 8
ENDMDL
MODEL 7
REMARK VINA RESULT:      -5.5      2.181      6.183
REMARK  8 active torsions:
REMARK  status: ('A' for Active; 'I' for Inactive)
REMARK    1  A    between atoms: C_1  and  C_3 
REMARK    2  A    between atoms: C_3  and  C_4 
REMARK    3  A    between atoms: C_3  and  C_13 
REMARK    4  A    between atoms: C_3  and  C_19 
REMARK    5  A    between atoms: C_4  and  C_5 
REMARK    6  A    between atoms: C_5  and  N_6 
REMARK    7  A    between atoms: N_6  and  C_7 
REMARK    8  A    between atoms: N_6  and  C_10 
ROOT
ATOM      1  C   UNL d   1      77.322  72.412  89.765  0.00  0.00     0.173 C 
ENDROOT
BRANCH   1   2
ATOM      2  C   UNL d   1      77.297  72.645  88.975  0.00  0.00     0.471 C 
ATOM      3  O   UNL d   1      76.372  72.487  88.051  0.00  0.00    -0.181 OA
ATOM      4  N   UNL d   1      78.534  73.289  88.059  0.00  0.00     0.654 N 
ENDBRANCH   1   2
BRANCH   1   5
ATOM      5  C   UNL d   1      77.515  71.645  89.533  0.00  0.00    -0.062 C 
BRANCH   5   6
ATOM      6  C   UNL d   1      77.865  70.063  89.103  0.00  0.00    -0.014 C 
BRANCH   6   7
ATOM      7  N   UNL d   1      78.166  68.704  88.672  0.00  0.00    -0.217 NA
BRANCH   7   8
ATOM      8  C   UNL d   1      77.500  68.345  87.469  0.00  0.00     0.070 C 
ATOM      9  C   UNL d   1      76.060  68.644  87.134  0.00  0.00     0.018 C 
ATOM     10  C   UNL d   1      78.255  67.671  86.342  0.00  0.00     0.018 C 
ENDBRANCH   7   8
BRANCH   7  11
ATOM     11  C   UNL d   1      78.107  67.697  89.666  0.00  0.00     0.070 C 
ATOM     12  C   UNL d   1      79.081  66.538  89.595  0.00  0.00     0.018 C 
ATOM     13  C   UNL d   1      77.577  67.954  91.059  0.00  0.00     0.018 C 
ENDBRANCH   7  11
ENDBRANCH   6   7
ENDBRANCH   5   6
ENDBRANCH   1   5
BRANCH   1  14
ATOM     14  C   UNL d   1      77.127  73.181  89.998  0.00  0.00     0.078 A 
ATOM     15  C   UNL d   1      77.998  74.404  90.491  0.00  0.00     0.016 A 
ATOM     16  C   UNL d   1      77.572  75.671  90.895  0.00  0.00     0.003 A 
ATOM     17  C   UNL d   1      76.223  75.959  90.898  0.00  0.00     0.021 A 
ATOM     18  C   UNL d   1      75.338  74.978  90.500  0.00  0.00     0.099 A 
ATOM     19  N   UNL d   1      75.688  73.720  90.092  0.00  0.00    -0.247 NA
ENDBRANCH   1  14
BRANCH   1  20
ATOM     20  C   UNL d   1      77.346  72.179  90.557  0.00  0.00    -0.002 A 
ATOM     21  C   UNL d   1      76.213  71.525  91.474  0.00  0.00    -0.003 A 
ATOM     22  C   UNL d   1      76.264  71.074  92.802  0.00  0.00    -0.000 A 
ATOM     23  C   UNL d   1      77.461  71.143  93.501  0.00  0.00    -0.000 A 
ATOM     24  C   UNL d   1      78.613  71.638  92.907  0.00  0.00    -0.000 A 
ATOM     25  C   UNL d   1      78.567  72.092  91.579  0.00  0.00    -0.003 A 
ENDBRANCH   1  20
TORSDOF 8
ENDMDL
MODEL 8
REMARK VINA RESULT:      -5.5      2.178      3.665
REMARK  8 active torsions:
REMARK  status: ('A' for Active; 'I' for Inactive)
REMARK    1  A    between atoms: C_1  and  C_3 
REMARK    2  A    between atoms: C_3  and  C_4 
REMARK    3  A    between atoms: C_3  and  C_13 
REMARK    4  A    between atoms: C_3  and  C_19 
REMARK    5  A    between atoms: C_4  and  C_5 
REMARK    6  A    between atoms: C_5  and  N_6 
REMARK    7  A    between atoms: N_6  and  C_7 
REMARK    8  A    between atoms: N_6  and  C_10 
ROOT
ATOM      1  C   UNL d   1      77.186  71.044  89.494  0.00  0.00     0.173 C 
ENDROOT
BRANCH   1   2
ATOM      2  C   UNL d   1      77.448  71.541  88.891  0.00  0.00     0.471 C 
ATOM      3  O   UNL d   1      78.652  71.986  88.595  0.00  0.00    -0.181 OA
ATOM      4  N   UNL d   1      76.526  72.421  87.816  0.00  0.00     0.654 N 
ENDBRANCH   1   2
BRANCH   1   5
ATOM      5  C   UNL d   1      77.219  71.673  90.027  0.00  0.00    -0.062 C 
BRANCH   5   6
ATOM      6  C   UNL d   1      77.242  72.982  91.074  0.00  0.00    -0.014 C 
BRANCH   6   7
ATOM      7  N   UNL d   1      77.210  74.137  91.962  0.00  0.00    -0.217 NA
BRANCH   7   8
ATOM      8  C   UNL d   1      76.662  73.837  93.238  0.00  0.00     0.070 C 
ATOM      9  C   UNL d   1      76.257  74.847  94.284  0.00  0.00     0.018 C 
ATOM     10  C   UNL d   1      76.354  72.407  93.628  0.00  0.00     0.018 C 
ENDBRANCH   7   8
BRANCH   7  11
ATOM     11  C   UNL d   1      76.719  75.345  91.411  0.00  0.00     0.070 C 
ATOM     12  C   UNL d   1      77.686  76.486  91.166  0.00  0.00     0.018 C 
ATOM     13  C   UNL d   1      75.484  75.404  90.540  0.00  0.00     0.018 C 
ENDBRANCH   7  11
ENDBRANCH   6   7
ENDBRANCH   5   6
ENDBRANCH   1   5
BRANCH   1  14
ATOM     14  C   UNL d   1      77.152  70.414  88.961  0.00  0.00     0.078 A 
ATOM     15  C   UNL d   1      75.981  69.812  88.085  0.00  0.00     0.016 A 
ATOM     16  C   UNL d   1      76.014  68.713  87.224  0.00  0.00     0.003 A 
ATOM     17  C   UNL d   1      77.189  68.006  87.077  0.00  0.00     0.021 A 
ATOM     18  C   UNL d   1      78.297  68.413  87.792  0.00  0.00     0.099 A 
ATOM     19  N   UNL d   1      78.335  69.478  88.648  0.00  0.00    -0.247 NA
ENDBRANCH   1  14
BRANCH   1  20
ATOM     20  C   UNL d   1      76.923  70.546  90.098  0.00  0.00    -0.002 A 
ATOM     21  C   UNL d   1      77.750  69.728  91.193  0.00  0.00    -0.003 A 
ATOM     22  C   UNL d   1      77.308  68.927  92.257  0.00  0.00    -0.000 A 
ATOM     23  C   UNL d   1      75.947  68.788  92.488  0.00  0.00    -0.000 A 
ATOM     24  C   UNL d   1      75.013  69.438  91.693  0.00  0.00    -0.000 A 
ATOM     25  C   UNL d   1      75.449  70.240  90.627  0.00  0.00    -0.003 A 
ENDBRANCH   1  20
TORSDOF 8
ENDMDL
MODEL 9
REMARK VINA RESULT:      -5.4      9.343     11.922
REMARK  8 active torsions:
REMARK  status: ('A' for Active; 'I' for Inactive)
REMARK    1  A    between atoms: C_1  and  C_3 
REMARK    2  A    between atoms: C_3  and  C_4 
REMARK    3  A    between atoms: C_3  and  C_13 
REMARK    4  A    between atoms: C_3  and  C_19 
REMARK    5  A    between atoms: C_4  and  C_5 
REMARK    6  A    between atoms: C_5  and  N_6 
REMARK    7  A    between atoms: N_6  and  C_7 
REMARK    8  A    between atoms: N_6  and  C_10 
ROOT
ATOM      1  C   UNL d   1      81.642  80.220  94.800  0.00  0.00     0.173 C 
ENDROOT
BRANCH   1   2
ATOM      2  C   UNL d   1      81.920  79.975  94.064  0.00  0.00     0.471 C 
ATOM      3  O   UNL d   1      82.330  80.663  93.018  0.00  0.00    -0.181 OA
ATOM      4  N   UNL d   1      81.920  78.432  93.431  0.00  0.00     0.654 N 
ENDBRANCH   1   2
BRANCH   1   5
ATOM      5  C   UNL d   1      80.878  80.272  94.494  0.00  0.00    -0.062 C 
BRANCH   5   6
ATOM      6  C   UNL d   1      79.319  80.438  93.901  0.00  0.00    -0.014 C 
BRANCH   6   7
ATOM      7  N   UNL d   1      77.974  80.639  93.377  0.00  0.00    -0.217 NA
BRANCH   7   8
ATOM      8  C   UNL d   1      77.329  81.776  93.934  0.00  0.00     0.070 C 
ATOM      9  C   UNL d   1      76.468  82.761  93.181  0.00  0.00     0.018 C 
ATOM     10  C   UNL d   1      77.397  82.048  95.422  0.00  0.00     0.018 C 
ENDBRANCH   7   8
BRANCH   7  11
ATOM     11  C   UNL d   1      77.141  79.496  93.315  0.00  0.00     0.070 C 
ATOM     12  C   UNL d   1      76.444  79.166  92.011  0.00  0.00     0.018 C 
ATOM     13  C   UNL d   1      77.330  78.298  94.218  0.00  0.00     0.018 C 
ENDBRANCH   7  11
ENDBRANCH   6   7
ENDBRANCH   5   6
ENDBRANCH   1   5
BRANCH   1  14
ATOM     14  C   UNL d   1      82.408  80.168  95.106  0.00  0.00     0.078 A 
ATOM     15  C   UNL d   1      83.607  81.194  95.174  0.00  0.00     0.016 A 
ATOM     16  C   UNL d   1      84.891  81.003  95.692  0.00  0.00     0.003 A 
ATOM     17  C   UNL d   1      85.227  79.774  96.221  0.00  0.00     0.021 A 
ATOM     18  C   UNL d   1      84.278  78.772  96.218  0.00  0.00     0.099 A 
ATOM     19  N   UNL d   1      83.006  78.893  95.731  0.00  0.00    -0.247 NA
ENDBRANCH   1  14
BRANCH   1  20
ATOM     20  C   UNL d   1      81.364  80.465  95.538  0.00  0.00    -0.002 A 
ATOM     21  C   UNL d   1      81.252  81.932  96.162  0.00  0.00    -0.003 A 
ATOM     22  C   UNL d   1      80.729  82.361  97.391  0.00  0.00    -0.000 A 
ATOM     23  C   UNL d   1      80.171  81.431  98.258  0.00  0.00    -0.000 A 
ATOM     24  C   UNL d   1      80.109  80.085  97.926  0.00  0.00    -0.000 A 
ATOM     25  C   UNL d   1      80.632  79.650  96.697  0.00  0.00    -0.003 A 
ENDBRANCH   1  20
TORSDOF 8
ENDMDL
MODEL 10
REMARK VINA RESULT:      -5.4     20.585     22.470
REMARK  8 active torsions:
REMARK  status: ('A' for Active; 'I' for Inactive)
REMARK    1  A    between atoms: C_1  and  C_3 
REMARK    2  A    between atoms: C_3  and  C_4 
REMARK    3  A    between atoms: C_3  and  C_13 
REMARK    4  A    between atoms: C_3  and  C_19 
REMARK    5  A    between atoms: C_4  and  C_5 
REMARK    6  A    between atoms: C_5  and  N_6 
REMARK    7  A    between atoms: N_6  and  C_7 
REMARK    8  A    between atoms: N_6  and  C_10 
ROOT
ATOM      1  C   UNL d   1      63.177  89.156  92.558  0.00  0.00     0.173 C 
ENDROOT
BRANCH   1   2
ATOM      2  C   UNL d   1      63.515  89.265  91.815  0.00  0.00     0.471 C 
ATOM      3  O   UNL d   1      63.378  90.232  90.931  0.00  0.00    -0.181 OA
ATOM      4  N   UNL d   1      64.429  88.180  90.937  0.00  0.00     0.654 N 
ENDBRANCH   1   2
BRANCH   1   5
ATOM      5  C   UNL d   1      62.486  88.879  92.204  0.00  0.00    -0.062 C 
BRANCH   5   6
ATOM      6  C   UNL d   1      61.054  88.311  91.542  0.00  0.00    -0.014 C 
BRANCH   6   7
ATOM      7  N   UNL d   1      59.782  87.862  90.993  0.00  0.00    -0.217 NA
BRANCH   7   8
ATOM      8  C   UNL d   1      58.663  88.354  91.716  0.00  0.00     0.070 C 
ATOM      9  C   UNL d   1      57.250  88.457  91.196  0.00  0.00     0.018 C 
ATOM     10  C   UNL d   1      58.802  88.758  93.170  0.00  0.00     0.018 C 
ENDBRANCH   7   8
BRANCH   7  11
ATOM     11  C   UNL d   1      59.680  86.486  90.673  0.00  0.00     0.070 C 
ATOM     12  C   UNL d   1      59.484  86.081  89.226  0.00  0.00     0.018 C 
ATOM     13  C   UNL d   1      60.305  85.402  91.523  0.00  0.00     0.018 C 
ENDBRANCH   7  11
ENDBRANCH   6   7
ENDBRANCH   5   6
ENDBRANCH   1   5
BRANCH   1  14
ATOM     14  C   UNL d   1      63.869  89.434  92.914  0.00  0.00     0.078 A 
ATOM     15  C   UNL d   1      65.083  88.702  93.614  0.00  0.00     0.016 A 
ATOM     16  C   UNL d   1      66.209  89.264  94.218  0.00  0.00     0.003 A 
ATOM     17  C   UNL d   1      66.340  90.637  94.255  0.00  0.00     0.021 A 
ATOM     18  C   UNL d   1      65.345  91.409  93.689  0.00  0.00     0.099 A 
ATOM     19  N   UNL d   1      64.221  90.924  93.081  0.00  0.00    -0.247 NA
ENDBRANCH   1  14
BRANCH   1  20
ATOM     20  C   UNL d   1      62.838  89.048  93.304  0.00  0.00    -0.002 A 
ATOM     21  C   UNL d   1      62.065  90.081  94.245  0.00  0.00    -0.003 A 
ATOM     22  C   UNL d   1      61.437  89.889  95.485  0.00  0.00    -0.000 A 
ATOM     23  C   UNL d   1      61.412  88.621  96.049  0.00  0.00    -0.000 A 
ATOM     24  C   UNL d   1      61.985  87.535  95.402  0.00  0.00    -0.000 A 
ATOM     25  C   UNL d   1      62.615  87.721  94.161  0.00  0.00    -0.003 A 
ENDBRANCH   1  20
TORSDOF 8
ENDMDL
MODEL 11
REMARK VINA RESULT:      -5.4     20.744     22.638
REMARK  8 active torsions:
REMARK  status: ('A' for Active; 'I' for Inactive)
REMARK    1  A    between atoms: C_1  and  C_3 
REMARK    2  A    between atoms: C_3  and  C_4 
REMARK    3  A    between atoms: C_3  and  C_13 
REMARK    4  A    between atoms: C_3  and  C_19 
REMARK    5  A    between atoms: C_4  and  C_5 
REMARK    6  A    between atoms: C_5  and  N_6 
REMARK    7  A    between atoms: N_6  and  C_7 
REMARK    8  A    between atoms: N_6  and  C_10 
ROOT
ATOM      1  C   UNL d   1      62.948  89.657  94.040  0.00  0.00     0.173 C 
ENDROOT
BRANCH   1   2
ATOM      2  C   UNL d   1      63.139  90.304  93.566  0.00  0.00     0.471 C 
ATOM      3  O   UNL d   1      62.554  91.475  93.421  0.00  0.00    -0.181 OA
ATOM      4  N   UNL d   1      64.292  90.388  92.365  0.00  0.00     0.654 N 
ENDBRANCH   1   2
BRANCH   1   5
ATOM      5  C   UNL d   1      62.457  89.366  93.445  0.00  0.00    -0.062 C 
BRANCH   5   6
ATOM      6  C   UNL d   1      61.486  88.716  92.243  0.00  0.00    -0.014 C 
BRANCH   6   7
ATOM      7  N   UNL d   1      60.619  88.206  91.189  0.00  0.00    -0.217 NA
BRANCH   7   8
ATOM      8  C   UNL d   1      59.792  87.135  91.625  0.00  0.00     0.070 C 
ATOM      9  C   UNL d   1      58.342  86.933  91.257  0.00  0.00     0.018 C 
ATOM     10  C   UNL d   1      60.362  86.015  92.470  0.00  0.00     0.018 C 
ENDBRANCH   7   8
BRANCH   7  11
ATOM     11  C   UNL d   1      61.223  87.970  89.931  0.00  0.00     0.070 C 
ATOM     12  C   UNL d   1      62.662  88.395  89.717  0.00  0.00     0.018 C 
ATOM     13  C   UNL d   1      60.778  86.860  89.006  0.00  0.00     0.018 C 
ENDBRANCH   7  11
ENDBRANCH   6   7
ENDBRANCH   5   6
ENDBRANCH   1   5
BRANCH   1  14
ATOM     14  C   UNL d   1      63.441  89.949  94.636  0.00  0.00     0.078 A 
ATOM     15  C   UNL d   1      63.183  90.906  95.867  0.00  0.00     0.016 A 
ATOM     16  C   UNL d   1      64.096  91.371  96.816  0.00  0.00     0.003 A 
ATOM     17  C   UNL d   1      65.419  90.993  96.720  0.00  0.00     0.021 A 
ATOM     18  C   UNL d   1      65.795  90.164  95.683  0.00  0.00     0.099 A 
ATOM     19  N   UNL d   1      64.953  89.671  94.724  0.00  0.00    -0.247 NA
ENDBRANCH   1  14
BRANCH   1  20
ATOM     20  C   UNL d   1      62.757  89.009  94.515  0.00  0.00    -0.002 A 
ATOM     21  C   UNL d   1      61.548  88.801  95.538  0.00  0.00    -0.003 A 
ATOM     22  C   UNL d   1      61.186  87.683  96.305  0.00  0.00    -0.000 A 
ATOM     23  C   UNL d   1      61.925  86.514  96.199  0.00  0.00    -0.000 A 
ATOM     24  C   UNL d   1      63.011  86.425  95.338  0.00  0.00    -0.000 A 
ATOM     25  C   UNL d   1      63.379  87.541  94.570  0.00  0.00    -0.003 A 
ENDBRANCH   1  20
TORSDOF 8
ENDMDL
MODEL 12
REMARK VINA RESULT:      -5.3     20.665     22.668
REMARK  8 active torsions:
REMARK  status: ('A' for Active; 'I' for Inactive)
REMARK    1  A    between atoms: C_1  and  C_3 
REMARK    2  A    between atoms: C_3  and  C_4 
REMARK    3  A    between atoms: C_3  and  C_13 
REMARK    4  A    between atoms: C_3  and  C_19 
REMARK    5  A    between atoms: C_4  and  C_5 
REMARK    6  A    between atoms: C_5  and  N_6 
REMARK    7  A    between atoms: N_6  and  C_7 
REMARK    8  A    between atoms: N_6  and  C_10 
ROOT
ATOM      1  C   UNL d   1      62.394  88.995  94.685  0.00  0.00     0.173 C 
ENDROOT
BRANCH   1   2
ATOM      2  C   UNL d   1      61.910  88.843  95.334  0.00  0.00     0.471 C 
ATOM      3  O   UNL d   1      61.089  89.623  96.007  0.00  0.00    -0.181 OA
ATOM      4  N   UNL d   1      61.867  87.470  96.280  0.00  0.00     0.654 N 
ENDBRANCH   1   2
BRANCH   1   5
ATOM      5  C   UNL d   1      61.822  88.678  94.183  0.00  0.00    -0.062 C 
BRANCH   5   6
ATOM      6  C   UNL d   1      60.707  88.003  93.129  0.00  0.00    -0.014 C 
BRANCH   6   7
ATOM      7  N   UNL d   1      59.739  87.367  92.245  0.00  0.00    -0.217 NA
BRANCH   7   8
ATOM      8  C   UNL d   1      60.213  87.233  90.912  0.00  0.00     0.070 C 
ATOM      9  C   UNL d   1      61.301  88.062  90.274  0.00  0.00     0.018 C 
ATOM     10  C   UNL d   1      59.687  86.134  90.013  0.00  0.00     0.018 C 
ENDBRANCH   7   8
BRANCH   7  11
ATOM     11  C   UNL d   1      58.406  87.840  92.320  0.00  0.00     0.070 C 
ATOM     12  C   UNL d   1      57.683  87.787  93.650  0.00  0.00     0.018 C 
ATOM     13  C   UNL d   1      57.855  88.885  91.376  0.00  0.00     0.018 C 
ENDBRANCH   7  11
ENDBRANCH   6   7
ENDBRANCH   5   6
ENDBRANCH   1   5
BRANCH   1  14
ATOM     14  C   UNL d   1      62.967  89.313  95.188  0.00  0.00     0.078 A 
ATOM     15  C   UNL d   1      63.182  90.759  95.790  0.00  0.00     0.016 A 
ATOM     16  C   UNL d   1      64.210  91.214  96.619  0.00  0.00     0.003 A 
ATOM     17  C   UNL d   1      65.211  90.342  96.992  0.00  0.00     0.021 A 
ATOM     18  C   UNL d   1      65.161  89.043  96.530  0.00  0.00     0.099 A 
ATOM     19  N   UNL d   1      64.184  88.532  95.720  0.00  0.00    -0.247 NA
ENDBRANCH   1  14
BRANCH   1  20
ATOM     20  C   UNL d   1      62.880  89.148  94.035  0.00  0.00    -0.002 A 
ATOM     21  C   UNL d   1      63.826  88.167  93.202  0.00  0.00    -0.003 A 
ATOM     22  C   UNL d   1      64.609  88.407  92.062  0.00  0.00    -0.000 A 
ATOM     23  C   UNL d   1      64.599  89.667  91.479  0.00  0.00    -0.000 A 
ATOM     24  C   UNL d   1      63.819  90.692  91.996  0.00  0.00    -0.000 A 
ATOM     25  C   UNL d   1      63.034  90.457  93.137  0.00  0.00    -0.003 A 
ENDBRANCH   1  20
TORSDOF 8
ENDMDL
