MODEL 1
REMARK VINA RESULT:      -4.7      0.000      0.000
REMARK  4 active torsions:
REMARK  status: ('A' for Active; 'I' for Inactive)
REMARK    1  A    between atoms: CA_2  and  CB_3 
REMARK    2  A    between atoms: CA_2  and  C_8 
REMARK    3  A    between atoms: CB_3  and  CG_4 
REMARK    4  A    between atoms: CG_4  and  CD_5 
ROOT
ATOM      1  N   GLN d   1      58.330  72.623  83.958  0.00  0.00     0.642 N 
ATOM      2  CA  GLN d   1      58.014  72.588  82.562  0.00  0.00     0.451 C 
ENDROOT
BRANCH   2   3
ATOM      3  CB  GLN d   1      56.646  72.430  82.215  0.00  0.00    -0.033 C 
BRANCH   3   4
ATOM      4  CG  GLN d   1      55.182  72.277  81.787  0.00  0.00    -0.005 C 
BRANCH   4   5
ATOM      5  CD  GLN d   1      53.803  72.178  81.416  0.00  0.00     0.309 C 
ATOM      6  OE1 GLN d   1      52.900  72.709  82.046  0.00  0.00    -0.262 OA
ATOM      7  NE2 GLN d   1      53.468  71.425  80.260  0.00  0.00    -0.049 NA
ENDBRANCH   4   5
ENDBRANCH   3   4
ENDBRANCH   2   3
BRANCH   2   8
ATOM      8  C   GLN d   1      59.089  72.712  81.473  0.00  0.00     0.237 C 
ATOM      9  O   GLN d   1      59.789  73.766  81.502  0.00  0.00    -0.645 OA
ATOM     10  OXT GLN d   1      59.159  71.743  80.658  0.00  0.00    -0.645 OA
ENDBRANCH   2   8
TORSDOF 4
ENDMDL
MODEL 2
REMARK VINA RESULT:      -4.2     20.505     21.151
REMARK  4 active torsions:
REMARK  status: ('A' for Active; 'I' for Inactive)
REMARK    1  A    between atoms: CA_2  and  CB_3 
REMARK    2  A    between atoms: CA_2  and  C_8 
REMARK    3  A    between atoms: CB_3  and  CG_4 
REMARK    4  A    between atoms: CG_4  and  CD_5 
ROOT
ATOM      1  N   GLN d   1      76.084  69.441  85.879  0.00  0.00     0.642 N 
ATOM      2  CA  GLN d   1      76.593  68.903  87.105  0.00  0.00     0.451 C 
ENDROOT
BRANCH   2   3
ATOM      3  CB  GLN d   1      75.966  69.328  88.305  0.00  0.00    -0.033 C 
BRANCH   3   4
ATOM      4  CG  GLN d   1      75.275  69.837  89.576  0.00  0.00    -0.005 C 
BRANCH   4   5
ATOM      5  CD  GLN d   1      74.667  70.287  90.791  0.00  0.00     0.309 C 
ATOM      6  OE1 GLN d   1      74.910  69.795  91.884  0.00  0.00    -0.262 OA
ATOM      7  NE2 GLN d   1      73.735  71.356  90.724  0.00  0.00    -0.049 NA
ENDBRANCH   4   5
ENDBRANCH   3   4
ENDBRANCH   2   3
BRANCH   2   8
ATOM      8  C   GLN d   1      77.763  67.910  87.143  0.00  0.00     0.237 C 
ATOM      9  O   GLN d   1      78.338  67.686  86.038  0.00  0.00    -0.645 OA
ATOM     10  OXT GLN d   1      78.028  67.418  88.281  0.00  0.00    -0.645 OA
ENDBRANCH   2   8
TORSDOF 4
ENDMDL
MODEL 3
REMARK VINA RESULT:      -4.1     19.805     21.292
REMARK  4 active torsions:
REMARK  status: ('A' for Active; 'I' for Inactive)
REMARK    1  A    between atoms: CA_2  and  CB_3 
REMARK    2  A    between atoms: CA_2  and  C_8 
REMARK    3  A    between atoms: CB_3  and  CG_4 
REMARK    4  A    between atoms: CG_4  and  CD_5 
ROOT
ATOM      1  N   GLN d   1      76.002  72.102  89.076  0.00  0.00     0.642 N 
ATOM      2  CA  GLN d   1      75.493  70.784  89.309  0.00  0.00     0.451 C 
ENDROOT
BRANCH   2   3
ATOM      3  CB  GLN d   1      76.181  69.708  88.687  0.00  0.00    -0.033 C 
BRANCH   3   4
ATOM      4  CG  GLN d   1      76.873  68.518  88.012  0.00  0.00    -0.005 C 
BRANCH   4   5
ATOM      5  CD  GLN d   1      77.509  67.378  87.426  0.00  0.00     0.309 C 
ATOM      6  OE1 GLN d   1      77.377  66.242  87.857  0.00  0.00    -0.262 OA
ATOM      7  NE2 GLN d   1      78.335  67.577  86.288  0.00  0.00    -0.049 NA
ENDBRANCH   4   5
ENDBRANCH   3   4
ENDBRANCH   2   3
BRANCH   2   8
ATOM      8  C   GLN d   1      74.262  70.522  90.187  0.00  0.00     0.237 C 
ATOM      9  O   GLN d   1      73.407  69.714  89.719  0.00  0.00    -0.645 OA
ATOM     10  OXT GLN d   1      74.233  71.145  91.291  0.00  0.00    -0.645 OA
ENDBRANCH   2   8
TORSDOF 4
ENDMDL
MODEL 4
REMARK VINA RESULT:      -4.0     30.447     31.375
REMARK  4 active torsions:
REMARK  status: ('A' for Active; 'I' for Inactive)
REMARK    1  A    between atoms: CA_2  and  CB_3 
REMARK    2  A    between atoms: CA_2  and  C_8 
REMARK    3  A    between atoms: CB_3  and  CG_4 
REMARK    4  A    between atoms: CG_4  and  CD_5 
ROOT
ATOM      1  N   GLN d   1      83.141  81.217  93.800  0.00  0.00     0.642 N 
ATOM      2  CA  GLN d   1      83.497  81.337  95.182  0.00  0.00     0.451 C 
ENDROOT
BRANCH   2   3
ATOM      3  CB  GLN d   1      82.475  81.749  96.077  0.00  0.00    -0.033 C 
BRANCH   3   4
ATOM      4  CG  GLN d   1      81.359  82.139  97.053  0.00  0.00    -0.005 C 
BRANCH   4   5
ATOM      5  CD  GLN d   1      80.353  82.508  98.002  0.00  0.00     0.309 C 
ATOM      6  OE1 GLN d   1      79.539  83.398  97.805  0.00  0.00    -0.262 OA
ATOM      7  NE2 GLN d   1      80.299  81.805  99.235  0.00  0.00    -0.049 NA
ENDBRANCH   4   5
ENDBRANCH   3   4
ENDBRANCH   2   3
BRANCH   2   8
ATOM      8  C   GLN d   1      84.913  81.039  95.694  0.00  0.00     0.237 C 
ATOM      9  O   GLN d   1      85.772  80.744  94.812  0.00  0.00    -0.645 OA
ATOM     10  OXT GLN d   1      85.070  81.120  96.950  0.00  0.00    -0.645 OA
ENDBRANCH   2   8
TORSDOF 4
ENDMDL
MODEL 5
REMARK VINA RESULT:      -3.9     29.669     31.432
REMARK  4 active torsions:
REMARK  status: ('A' for Active; 'I' for Inactive)
REMARK    1  A    between atoms: CA_2  and  CB_3 
REMARK    2  A    between atoms: CA_2  and  C_8 
REMARK    3  A    between atoms: CB_3  and  CG_4 
REMARK    4  A    between atoms: CG_4  and  CD_5 
ROOT
ATOM      1  N   GLN d   1      72.008  89.666 104.698  0.00  0.00     0.642 N 
ATOM      2  CA  GLN d   1      72.965  90.026 103.695  0.00  0.00     0.451 C 
ENDROOT
BRANCH   2   3
ATOM      3  CB  GLN d   1      72.786  89.466 102.403  0.00  0.00    -0.033 C 
BRANCH   3   4
ATOM      4  CG  GLN d   1      72.537  88.855 101.019  0.00  0.00    -0.005 C 
BRANCH   4   5
ATOM      5  CD  GLN d   1      72.255  88.271  99.744  0.00  0.00     0.309 C 
ATOM      6  OE1 GLN d   1      71.150  88.299  99.223  0.00  0.00    -0.262 OA
ATOM      7  NE2 GLN d   1      73.313  87.626  99.048  0.00  0.00    -0.049 NA
ENDBRANCH   4   5
ENDBRANCH   3   4
ENDBRANCH   2   3
BRANCH   2   8
ATOM      8  C   GLN d   1      74.139  90.973 103.982  0.00  0.00     0.237 C 
ATOM      9  O   GLN d   1      75.256  90.636 103.492  0.00  0.00    -0.645 OA
ATOM     10  OXT GLN d   1      73.862  91.993 104.683  0.00  0.00    -0.645 OA
ENDBRANCH   2   8
TORSDOF 4
ENDMDL
MODEL 6
REMARK VINA RESULT:      -3.9     20.256     21.395
REMARK  4 active torsions:
REMARK  status: ('A' for Active; 'I' for Inactive)
REMARK    1  A    between atoms: CA_2  and  CB_3 
REMARK    2  A    between atoms: CA_2  and  C_8 
REMARK    3  A    between atoms: CB_3  and  CG_4 
REMARK    4  A    between atoms: CG_4  and  CD_5 
ROOT
ATOM      1  N   GLN d   1      78.297  67.631  89.093  0.00  0.00     0.642 N 
ATOM      2  CA  GLN d   1      77.504  68.431  88.208  0.00  0.00     0.451 C 
ENDROOT
BRANCH   2   3
ATOM      3  CB  GLN d   1      76.688  69.431  88.800  0.00  0.00    -0.033 C 
BRANCH   3   4
ATOM      4  CG  GLN d   1      75.849  70.520  89.477  0.00  0.00    -0.005 C 
BRANCH   4   5
ATOM      5  CD  GLN d   1      75.021  71.516  90.087  0.00  0.00     0.309 C 
ATOM      6  OE1 GLN d   1      75.281  72.710  90.063  0.00  0.00    -0.262 OA
ATOM      7  NE2 GLN d   1      73.840  71.096  90.753  0.00  0.00    -0.049 NA
ENDBRANCH   4   5
ENDBRANCH   3   4
ENDBRANCH   2   3
BRANCH   2   8
ATOM      8  C   GLN d   1      77.520  68.234  86.686  0.00  0.00     0.237 C 
ATOM      9  O   GLN d   1      78.392  67.433  86.238  0.00  0.00    -0.645 OA
ATOM     10  OXT GLN d   1      76.655  68.897  86.038  0.00  0.00    -0.645 OA
ENDBRANCH   2   8
TORSDOF 4
ENDMDL
MODEL 7
REMARK VINA RESULT:      -3.9     19.480     20.754
REMARK  4 active torsions:
REMARK  status: ('A' for Active; 'I' for Inactive)
REMARK    1  A    between atoms: CA_2  and  CB_3 
REMARK    2  A    between atoms: CA_2  and  C_8 
REMARK    3  A    between atoms: CB_3  and  CG_4 
REMARK    4  A    between atoms: CG_4  and  CD_5 
ROOT
ATOM      1  N   GLN d   1      65.508  89.254  92.765  0.00  0.00     0.642 N 
ATOM      2  CA  GLN d   1      64.334  89.931  92.302  0.00  0.00     0.451 C 
ENDROOT
BRANCH   2   3
ATOM      3  CB  GLN d   1      63.524  89.245  91.359  0.00  0.00    -0.033 C 
BRANCH   3   4
ATOM      4  CG  GLN d   1      62.608  88.499  90.382  0.00  0.00    -0.005 C 
BRANCH   4   5
ATOM      5  CD  GLN d   1      61.719  87.795  89.509  0.00  0.00     0.309 C 
ATOM      6  OE1 GLN d   1      61.220  88.297  88.512  0.00  0.00    -0.262 OA
ATOM      7  NE2 GLN d   1      61.400  86.446  89.818  0.00  0.00    -0.049 NA
ENDBRANCH   4   5
ENDBRANCH   3   4
ENDBRANCH   2   3
BRANCH   2   8
ATOM      8  C   GLN d   1      63.950  91.336  92.788  0.00  0.00     0.237 C 
ATOM      9  O   GLN d   1      63.144  91.977  92.053  0.00  0.00    -0.645 OA
ATOM     10  OXT GLN d   1      64.484  91.704  93.878  0.00  0.00    -0.645 OA
ENDBRANCH   2   8
TORSDOF 4
ENDMDL
MODEL 8
REMARK VINA RESULT:      -3.9     20.718     21.767
REMARK  4 active torsions:
REMARK  status: ('A' for Active; 'I' for Inactive)
REMARK    1  A    between atoms: CA_2  and  CB_3 
REMARK    2  A    between atoms: CA_2  and  C_8 
REMARK    3  A    between atoms: CB_3  and  CG_4 
REMARK    4  A    between atoms: CG_4  and  CD_5 
ROOT
ATOM      1  N   GLN d   1      78.767  67.222  88.913  0.00  0.00     0.642 N 
ATOM      2  CA  GLN d   1      77.754  68.061  88.348  0.00  0.00     0.451 C 
ENDROOT
BRANCH   2   3
ATOM      3  CB  GLN d   1      76.927  68.774  89.256  0.00  0.00    -0.033 C 
BRANCH   3   4
ATOM      4  CG  GLN d   1      76.002  69.496  90.243  0.00  0.00    -0.005 C 
BRANCH   4   5
ATOM      5  CD  GLN d   1      75.120  70.122  91.179  0.00  0.00     0.309 C 
ATOM      6  OE1 GLN d   1      75.296  70.094  92.388  0.00  0.00    -0.262 OA
ATOM      7  NE2 GLN d   1      73.983  70.811  90.678  0.00  0.00    -0.049 NA
ENDBRANCH   4   5
ENDBRANCH   3   4
ENDBRANCH   2   3
BRANCH   2   8
ATOM      8  C   GLN d   1      77.552  68.199  86.832  0.00  0.00     0.237 C 
ATOM      9  O   GLN d   1      76.545  68.871  86.465  0.00  0.00    -0.645 OA
ATOM     10  OXT GLN d   1      78.420  67.622  86.109  0.00  0.00    -0.645 OA
ENDBRANCH   2   8
TORSDOF 4
ENDMDL
MODEL 9
REMARK VINA RESULT:      -3.7      1.858      5.465
REMARK  4 active torsions:
REMARK  status: ('A' for Active; 'I' for Inactive)
REMARK    1  A    between atoms: CA_2  and  CB_3 
REMARK    2  A    between atoms: CA_2  and  C_8 
REMARK    3  A    between atoms: CB_3  and  CG_4 
REMARK    4  A    between atoms: CG_4  and  CD_5 
ROOT
ATOM      1  N   GLN d   1      53.937  71.727  78.782  0.00  0.00     0.642 N 
ATOM      2  CA  GLN d   1      54.254  72.228  80.085  0.00  0.00     0.451 C 
ENDROOT
BRANCH   2   3
ATOM      3  CB  GLN d   1      55.625  72.256  80.450  0.00  0.00    -0.033 C 
BRANCH   3   4
ATOM      4  CG  GLN d   1      57.110  72.229  80.832  0.00  0.00    -0.005 C 
BRANCH   4   5
ATOM      5  CD  GLN d   1      58.492  72.152  81.197  0.00  0.00     0.309 C 
ATOM      6  OE1 GLN d   1      58.875  71.781  82.297  0.00  0.00    -0.262 OA
ATOM      7  NE2 GLN d   1      59.466  72.525  80.233  0.00  0.00    -0.049 NA
ENDBRANCH   4   5
ENDBRANCH   3   4
ENDBRANCH   2   3
BRANCH   2   8
ATOM      8  C   GLN d   1      53.174  72.719  81.061  0.00  0.00     0.237 C 
ATOM      9  O   GLN d   1      53.589  73.158  82.173  0.00  0.00    -0.645 OA
ATOM     10  OXT GLN d   1      51.979  72.631  80.645  0.00  0.00    -0.645 OA
ENDBRANCH   2   8
TORSDOF 4
ENDMDL
MODEL 10
REMARK VINA RESULT:      -3.6     20.868     22.591
REMARK  4 active torsions:
REMARK  status: ('A' for Active; 'I' for Inactive)
REMARK    1  A    between atoms: CA_2  and  CB_3 
REMARK    2  A    between atoms: CA_2  and  C_8 
REMARK    3  A    between atoms: CB_3  and  CG_4 
REMARK    4  A    between atoms: CG_4  and  CD_5 
ROOT
ATOM      1  N   GLN d   1      78.316  67.769  86.290  0.00  0.00     0.642 N 
ATOM      2  CA  GLN d   1      77.349  68.300  87.203  0.00  0.00     0.451 C 
ENDROOT
BRANCH   2   3
ATOM      3  CB  GLN d   1      77.550  68.031  88.582  0.00  0.00    -0.033 C 
BRANCH   3   4
ATOM      4  CG  GLN d   1      77.716  67.767  90.083  0.00  0.00    -0.005 C 
BRANCH   4   5
ATOM      5  CD  GLN d   1      77.922  67.504  91.475  0.00  0.00     0.309 C 
ATOM      6  OE1 GLN d   1      78.894  66.902  91.907  0.00  0.00    -0.262 OA
ATOM      7  NE2 GLN d   1      76.948  67.966  92.400  0.00  0.00    -0.049 NA
ENDBRANCH   4   5
ENDBRANCH   3   4
ENDBRANCH   2   3
BRANCH   2   8
ATOM      8  C   GLN d   1      76.142  69.125  86.734  0.00  0.00     0.237 C 
ATOM      9  O   GLN d   1      75.225  69.303  87.588  0.00  0.00    -0.645 OA
ATOM     10  OXT GLN d   1      76.194  69.539  85.536  0.00  0.00    -0.645 OA
ENDBRANCH   2   8
TORSDOF 4
ENDMDL
MODEL 11
REMARK VINA RESULT:      -3.5     20.180     20.765
REMARK  4 active torsions:
REMARK  status: ('A' for Active; 'I' for Inactive)
REMARK    1  A    between atoms: CA_2  and  CB_3 
REMARK    2  A    between atoms: CA_2  and  C_8 
REMARK    3  A    between atoms: CB_3  and  CG_4 
REMARK    4  A    between atoms: CG_4  and  CD_5 
ROOT
ATOM      1  N   GLN d   1      76.903  72.307  91.200  0.00  0.00     0.642 N 
ATOM      2  CA  GLN d   1      75.720  72.011  90.449  0.00  0.00     0.451 C 
ENDROOT
BRANCH   2   3
ATOM      3  CB  GLN d   1      75.863  71.141  89.336  0.00  0.00    -0.033 C 
BRANCH   3   4
ATOM      4  CG  GLN d   1      76.065  70.178  88.160  0.00  0.00    -0.005 C 
BRANCH   4   5
ATOM      5  CD  GLN d   1      76.238  69.239  87.094  0.00  0.00     0.309 C 
ATOM      6  OE1 GLN d   1      75.956  69.486  85.931  0.00  0.00    -0.262 OA
ATOM      7  NE2 GLN d   1      76.763  67.957  87.404  0.00  0.00    -0.049 NA
ENDBRANCH   4   5
ENDBRANCH   3   4
ENDBRANCH   2   3
BRANCH   2   8
ATOM      8  C   GLN d   1      74.348  72.597  90.813  0.00  0.00     0.237 C 
ATOM      9  O   GLN d   1      74.289  73.857  90.906  0.00  0.00    -0.645 OA
ATOM     10  OXT GLN d   1      73.418  71.751  90.981  0.00  0.00    -0.645 OA
ENDBRANCH   2   8
TORSDOF 4
ENDMDL
MODEL 12
REMARK VINA RESULT:      -3.5     20.637     22.274
REMARK  4 active torsions:
REMARK  status: ('A' for Active; 'I' for Inactive)
REMARK    1  A    between atoms: CA_2  and  CB_3 
REMARK    2  A    between atoms: CA_2  and  C_8 
REMARK    3  A    between atoms: CB_3  and  CG_4 
REMARK    4  A    between atoms: CG_4  and  CD_5 
ROOT
ATOM      1  N   GLN d   1      75.691  69.665  86.098  0.00  0.00     0.642 N 
ATOM      2  CA  GLN d   1      76.322  69.699  87.383  0.00  0.00     0.451 C 
ENDROOT
BRANCH   2   3
ATOM      3  CB  GLN d   1      76.964  68.510  87.819  0.00  0.00    -0.033 C 
BRANCH   3   4
ATOM      4  CG  GLN d   1      77.670  67.253  88.338  0.00  0.00    -0.005 C 
BRANCH   4   5
ATOM      5  CD  GLN d   1      78.344  66.106  88.867  0.00  0.00     0.309 C 
ATOM      6  OE1 GLN d   1      78.988  65.330  88.176  0.00  0.00    -0.262 OA
ATOM      7  NE2 GLN d   1      78.262  65.859  90.263  0.00  0.00    -0.049 NA
ENDBRANCH   4   5
ENDBRANCH   3   4
ENDBRANCH   2   3
BRANCH   2   8
ATOM      8  C   GLN d   1      76.316  70.954  88.268  0.00  0.00     0.237 C 
ATOM      9  O   GLN d   1      76.427  72.061  87.663  0.00  0.00    -0.645 OA
ATOM     10  OXT GLN d   1      76.200  70.747  89.513  0.00  0.00    -0.645 OA
ENDBRANCH   2   8
TORSDOF 4
ENDMDL
MODEL 13
REMARK VINA RESULT:      -3.4     20.585     21.906
REMARK  4 active torsions:
REMARK  status: ('A' for Active; 'I' for Inactive)
REMARK    1  A    between atoms: CA_2  and  CB_3 
REMARK    2  A    between atoms: CA_2  and  C_8 
REMARK    3  A    between atoms: CB_3  and  CG_4 
REMARK    4  A    between atoms: CG_4  and  CD_5 
ROOT
ATOM      1  N   GLN d   1      63.864  88.672  95.725  0.00  0.00     0.642 N 
ATOM      2  CA  GLN d   1      63.502  89.718  94.817  0.00  0.00     0.451 C 
ENDROOT
BRANCH   2   3
ATOM      3  CB  GLN d   1      63.194  89.337  93.484  0.00  0.00    -0.033 C 
BRANCH   3   4
ATOM      4  CG  GLN d   1      62.881  88.873  92.057  0.00  0.00    -0.005 C 
BRANCH   4   5
ATOM      5  CD  GLN d   1      62.550  88.476  90.723  0.00  0.00     0.309 C 
ATOM      6  OE1 GLN d   1      61.436  88.618  90.238  0.00  0.00    -0.262 OA
ATOM      7  NE2 GLN d   1      63.565  87.888  89.922  0.00  0.00    -0.049 NA
ENDBRANCH   4   5
ENDBRANCH   3   4
ENDBRANCH   2   3
BRANCH   2   8
ATOM      8  C   GLN d   1      63.444  91.192  95.242  0.00  0.00     0.237 C 
ATOM      9  O   GLN d   1      64.088  91.495  96.289  0.00  0.00    -0.645 OA
ATOM     10  OXT GLN d   1      62.753  91.951  94.497  0.00  0.00    -0.645 OA
ENDBRANCH   2   8
TORSDOF 4
ENDMDL
MODEL 14
REMARK VINA RESULT:      -3.4     19.614     21.203
REMARK  4 active torsions:
REMARK  status: ('A' for Active; 'I' for Inactive)
REMARK    1  A    between atoms: CA_2  and  CB_3 
REMARK    2  A    between atoms: CA_2  and  C_8 
REMARK    3  A    between atoms: CB_3  and  CG_4 
REMARK    4  A    between atoms: CG_4  and  CD_5 
ROOT
ATOM      1  N   GLN d   1      61.313  86.854  93.075  0.00  0.00     0.642 N 
ATOM      2  CA  GLN d   1      61.771  87.848  92.152  0.00  0.00     0.451 C 
ENDROOT
BRANCH   2   3
ATOM      3  CB  GLN d   1      62.469  88.959  92.695  0.00  0.00    -0.033 C 
BRANCH   3   4
ATOM      4  CG  GLN d   1      63.187  90.158  93.326  0.00  0.00    -0.005 C 
BRANCH   4   5
ATOM      5  CD  GLN d   1      63.896  91.244  93.930  0.00  0.00     0.309 C 
ATOM      6  OE1 GLN d   1      64.776  91.871  93.358  0.00  0.00    -0.262 OA
ATOM      7  NE2 GLN d   1      63.562  91.611  95.261  0.00  0.00    -0.049 NA
ENDBRANCH   4   5
ENDBRANCH   3   4
ENDBRANCH   2   3
BRANCH   2   8
ATOM      8  C   GLN d   1      61.531  87.737  90.640  0.00  0.00     0.237 C 
ATOM      9  O   GLN d   1      60.574  88.424  90.178  0.00  0.00    -0.645 OA
ATOM     10  OXT GLN d   1      62.321  86.967  90.014  0.00  0.00    -0.645 OA
ENDBRANCH   2   8
TORSDOF 4
ENDMDL
MODEL 15
REMARK VINA RESULT:      -3.3     26.059     28.260
REMARK  4 active torsions:
REMARK  status: ('A' for Active; 'I' for Inactive)
REMARK    1  A    between atoms: CA_2  and  CB_3 
REMARK    2  A    between atoms: CA_2  and  C_8 
REMARK    3  A    between atoms: CB_3  and  CG_4 
REMARK    4  A    between atoms: CG_4  and  CD_5 
ROOT
ATOM      1  N   GLN d   1      80.027  80.145  97.955  0.00  0.00     0.642 N 
ATOM      2  CA  GLN d   1      80.189  81.203  97.005  0.00  0.00     0.451 C 
ENDROOT
BRANCH   2   3
ATOM      3  CB  GLN d   1      79.267  81.248  95.926  0.00  0.00    -0.033 C 
BRANCH   3   4
ATOM      4  CG  GLN d   1      78.308  81.330  94.733  0.00  0.00    -0.005 C 
BRANCH   4   5
ATOM      5  CD  GLN d   1      77.421  81.459  93.617  0.00  0.00     0.309 C 
ATOM      6  OE1 GLN d   1      76.920  82.521  93.278  0.00  0.00    -0.262 OA
ATOM      7  NE2 GLN d   1      77.107  80.295  92.867  0.00  0.00    -0.049 NA
ENDBRANCH   4   5
ENDBRANCH   3   4
ENDBRANCH   2   3
BRANCH   2   8
ATOM      8  C   GLN d   1      81.303  82.253  97.126  0.00  0.00     0.237 C 
ATOM      9  O   GLN d   1      81.848  82.612  96.042  0.00  0.00    -0.645 OA
ATOM     10  OXT GLN d   1      81.557  82.649  98.304  0.00  0.00    -0.645 OA
ENDBRANCH   2   8
TORSDOF 4
ENDMDL
MODEL 16
REMARK VINA RESULT:      -3.3     20.592     22.335
REMARK  4 active torsions:
REMARK  status: ('A' for Active; 'I' for Inactive)
REMARK    1  A    between atoms: CA_2  and  CB_3 
REMARK    2  A    between atoms: CA_2  and  C_8 
REMARK    3  A    between atoms: CB_3  and  CG_4 
REMARK    4  A    between atoms: CG_4  and  CD_5 
ROOT
ATOM      1  N   GLN d   1      64.556  71.066  99.020  0.00  0.00     0.642 N 
ATOM      2  CA  GLN d   1      64.524  70.769 100.420  0.00  0.00     0.451 C 
ENDROOT
BRANCH   2   3
ATOM      3  CB  GLN d   1      65.774  70.634 101.080  0.00  0.00    -0.033 C 
BRANCH   3   4
ATOM      4  CG  GLN d   1      67.141  70.454 101.749  0.00  0.00    -0.005 C 
BRANCH   4   5
ATOM      5  CD  GLN d   1      68.395  70.299 102.420  0.00  0.00     0.309 C 
ATOM      6  OE1 GLN d   1      68.764  71.028 103.329  0.00  0.00    -0.262 OA
ATOM      7  NE2 GLN d   1      69.254  69.245 102.010  0.00  0.00    -0.049 NA
ENDBRANCH   4   5
ENDBRANCH   3   4
ENDBRANCH   2   3
BRANCH   2   8
ATOM      8  C   GLN d   1      63.208  70.601 101.194  0.00  0.00     0.237 C 
ATOM      9  O   GLN d   1      63.318  70.389 102.437  0.00  0.00    -0.645 OA
ATOM     10  OXT GLN d   1      62.150  70.694 100.502  0.00  0.00    -0.645 OA
ENDBRANCH   2   8
TORSDOF 4
ENDMDL
MODEL 17
REMARK VINA RESULT:      -3.2     21.042     21.627
REMARK  4 active torsions:
REMARK  status: ('A' for Active; 'I' for Inactive)
REMARK    1  A    between atoms: CA_2  and  CB_3 
REMARK    2  A    between atoms: CA_2  and  C_8 
REMARK    3  A    between atoms: CB_3  and  CG_4 
REMARK    4  A    between atoms: CG_4  and  CD_5 
ROOT
ATOM      1  N   GLN d   1      71.032  80.975  92.355  0.00  0.00     0.642 N 
ATOM      2  CA  GLN d   1      71.904  82.100  92.195  0.00  0.00     0.451 C 
ENDROOT
BRANCH   2   3
ATOM      3  CB  GLN d   1      71.322  83.389  92.322  0.00  0.00    -0.033 C 
BRANCH   3   4
ATOM      4  CG  GLN d   1      70.664  84.762  92.504  0.00  0.00    -0.005 C 
BRANCH   4   5
ATOM      5  CD  GLN d   1      70.100  86.066  92.677  0.00  0.00     0.309 C 
ATOM      6  OE1 GLN d   1      69.859  86.552  93.773  0.00  0.00    -0.262 OA
ATOM      7  NE2 GLN d   1      69.804  86.832  91.519  0.00  0.00    -0.049 NA
ENDBRANCH   4   5
ENDBRANCH   3   4
ENDBRANCH   2   3
BRANCH   2   8
ATOM      8  C   GLN d   1      73.402  81.943  91.901  0.00  0.00     0.237 C 
ATOM      9  O   GLN d   1      74.108  81.476  92.842  0.00  0.00    -0.645 OA
ATOM     10  OXT GLN d   1      73.773  82.300  90.742  0.00  0.00    -0.645 OA
ENDBRANCH   2   8
TORSDOF 4
ENDMDL
MODEL 18
REMARK VINA RESULT:      -3.2     22.363     24.059
REMARK  4 active torsions:
REMARK  status: ('A' for Active; 'I' for Inactive)
REMARK    1  A    between atoms: CA_2  and  CB_3 
REMARK    2  A    between atoms: CA_2  and  C_8 
REMARK    3  A    between atoms: CB_3  and  CG_4 
REMARK    4  A    between atoms: CG_4  and  CD_5 
ROOT
ATOM      1  N   GLN d   1      78.197  67.626  86.296  0.00  0.00     0.642 N 
ATOM      2  CA  GLN d   1      78.134  67.405  87.709  0.00  0.00     0.451 C 
ENDROOT
BRANCH   2   3
ATOM      3  CB  GLN d   1      78.468  66.105  88.174  0.00  0.00    -0.033 C 
BRANCH   3   4
ATOM      4  CG  GLN d   1      78.818  64.682  88.623  0.00  0.00    -0.005 C 
BRANCH   4   5
ATOM      5  CD  GLN d   1      79.188  63.373  89.067  0.00  0.00     0.309 C 
ATOM      6  OE1 GLN d   1      79.082  63.004  90.228  0.00  0.00    -0.262 OA
ATOM      7  NE2 GLN d   1      79.703  62.457  88.112  0.00  0.00    -0.049 NA
ENDBRANCH   4   5
ENDBRANCH   3   4
ENDBRANCH   2   3
BRANCH   2   8
ATOM      8  C   GLN d   1      77.728  68.509  88.696  0.00  0.00     0.237 C 
ATOM      9  O   GLN d   1      78.613  68.861  89.530  0.00  0.00    -0.645 OA
ATOM     10  OXT GLN d   1      76.546  68.950  88.569  0.00  0.00    -0.645 OA
ENDBRANCH   2   8
TORSDOF 4
ENDMDL
MODEL 19
REMARK VINA RESULT:      -3.2      4.193      5.191
REMARK  4 active torsions:
REMARK  status: ('A' for Active; 'I' for Inactive)
REMARK    1  A    between atoms: CA_2  and  CB_3 
REMARK    2  A    between atoms: CA_2  and  C_8 
REMARK    3  A    between atoms: CB_3  and  CG_4 
REMARK    4  A    between atoms: CG_4  and  CD_5 
ROOT
ATOM      1  N   GLN d   1      55.248  72.180  79.650  0.00  0.00     0.642 N 
ATOM      2  CA  GLN d   1      56.585  71.668  79.647  0.00  0.00     0.451 C 
ENDROOT
BRANCH   2   3
ATOM      3  CB  GLN d   1      56.860  70.591  78.763  0.00  0.00    -0.033 C 
BRANCH   3   4
ATOM      4  CG  GLN d   1      57.210  69.450  77.800  0.00  0.00    -0.005 C 
BRANCH   4   5
ATOM      5  CD  GLN d   1      57.587  68.402  76.901  0.00  0.00     0.309 C 
ATOM      6  OE1 GLN d   1      58.555  68.473  76.159  0.00  0.00    -0.262 OA
ATOM      7  NE2 GLN d   1      56.796  67.223  76.871  0.00  0.00    -0.049 NA
ENDBRANCH   4   5
ENDBRANCH   3   4
ENDBRANCH   2   3
BRANCH   2   8
ATOM      8  C   GLN d   1      57.687  72.241  80.549  0.00  0.00     0.237 C 
ATOM      9  O   GLN d   1      58.787  72.506  79.983  0.00  0.00    -0.645 OA
ATOM     10  OXT GLN d   1      57.374  72.388  81.769  0.00  0.00    -0.645 OA
ENDBRANCH   2   8
TORSDOF 4
ENDMDL
MODEL 20
REMARK VINA RESULT:      -3.1     21.119     21.879
REMARK  4 active torsions:
REMARK  status: ('A' for Active; 'I' for Inactive)
REMARK    1  A    between atoms: CA_2  and  CB_3 
REMARK    2  A    between atoms: CA_2  and  C_8 
REMARK    3  A    between atoms: CB_3  and  CG_4 
REMARK    4  A    between atoms: CG_4  and  CD_5 
ROOT
ATOM      1  N   GLN d   1      78.159  70.415  91.698  0.00  0.00     0.642 N 
ATOM      2  CA  GLN d   1      76.901  70.165  91.062  0.00  0.00     0.451 C 
ENDROOT
BRANCH   2   3
ATOM      3  CB  GLN d   1      76.937  69.723  89.713  0.00  0.00    -0.033 C 
BRANCH   3   4
ATOM      4  CG  GLN d   1      76.921  69.264  88.251  0.00  0.00    -0.005 C 
BRANCH   4   5
ATOM      5  CD  GLN d   1      76.865  68.866  86.877  0.00  0.00     0.309 C 
ATOM      6  OE1 GLN d   1      77.633  68.055  86.382  0.00  0.00    -0.262 OA
ATOM      7  NE2 GLN d   1      75.866  69.443  86.049  0.00  0.00    -0.049 NA
ENDBRANCH   4   5
ENDBRANCH   3   4
ENDBRANCH   2   3
BRANCH   2   8
ATOM      8  C   GLN d   1      75.561  70.358  91.787  0.00  0.00     0.237 C 
ATOM      9  O   GLN d   1      74.986  69.303  92.182  0.00  0.00    -0.645 OA
ATOM     10  OXT GLN d   1      75.174  71.560  91.911  0.00  0.00    -0.645 OA
ENDBRANCH   2   8
TORSDOF 4
ENDMDL
