MODEL 1
REMARK VINA RESULT:      -4.2      0.000      0.000
REMARK  2 active torsions:
REMARK  status: ('A' for Active; 'I' for Inactive)
REMARK    1  A    between atoms: C_2  and  CA_5 
REMARK    2  A    between atoms: CA_5  and  C_7 
ROOT
ATOM      1  CA  UNL d   1      83.531  80.562  95.981  0.00  0.00     0.397 C 
ATOM      2  N   UNL d   1      82.552  79.590  96.411  0.00  0.00     0.629 N 
ENDROOT
BRANCH   1   3
ATOM      3  C   UNL d   1      84.926  80.233  95.639  0.00  0.00     0.094 C 
ATOM      4  C   UNL d   1      85.850  79.865  96.840  0.00  0.00     0.014 C 
ATOM      5  C   UNL d   1      85.634  81.047  94.521  0.00  0.00     0.014 C 
ATOM      6  S   UNL d   1      84.987  78.517  94.734  0.00  0.00    -0.081 SA
ENDBRANCH   1   3
BRANCH   1   7
ATOM      7  C   UNL d   1      83.287  81.994  96.316  0.00  0.00     0.225 C 
ATOM      8  O   UNL d   1      83.876  82.437  97.346  0.00  0.00    -0.646 OA
ATOM      9  OXT UNL d   1      82.415  82.588  95.613  0.00  0.00    -0.646 OA
ENDBRANCH   1   7
TORSDOF 2
ENDMDL
MODEL 2
REMARK VINA RESULT:      -4.2      1.807      1.947
REMARK  2 active torsions:
REMARK  status: ('A' for Active; 'I' for Inactive)
REMARK    1  A    between atoms: C_2  and  CA_5 
REMARK    2  A    between atoms: CA_5  and  C_7 
ROOT
ATOM      1  CA  UNL d   1      84.091  81.574  96.408  0.00  0.00     0.397 C 
ATOM      2  N   UNL d   1      84.861  82.522  97.180  0.00  0.00     0.629 N 
ENDROOT
BRANCH   1   3
ATOM      3  C   UNL d   1      84.648  80.741  95.329  0.00  0.00     0.094 C 
ATOM      4  C   UNL d   1      86.152  80.980  94.996  0.00  0.00     0.014 C 
ATOM      5  C   UNL d   1      83.765  80.436  94.087  0.00  0.00     0.014 C 
ATOM      6  S   UNL d   1      84.809  78.906  95.940  0.00  0.00    -0.081 SA
ENDBRANCH   1   3
BRANCH   1   7
ATOM      7  C   UNL d   1      82.610  81.747  96.368  0.00  0.00     0.225 C 
ATOM      8  O   UNL d   1      81.924  80.827  96.902  0.00  0.00    -0.646 OA
ATOM      9  OXT UNL d   1      82.184  82.731  95.690  0.00  0.00    -0.646 OA
ENDBRANCH   1   7
TORSDOF 2
ENDMDL
MODEL 3
REMARK VINA RESULT:      -4.0      2.961      3.311
REMARK  2 active torsions:
REMARK  status: ('A' for Active; 'I' for Inactive)
REMARK    1  A    between atoms: C_2  and  CA_5 
REMARK    2  A    between atoms: CA_5  and  C_7 
ROOT
ATOM      1  CA  UNL d   1      84.792  81.301  96.278  0.00  0.00     0.397 C 
ATOM      2  N   UNL d   1      84.818  82.437  97.173  0.00  0.00     0.629 N 
ENDROOT
BRANCH   1   3
ATOM      3  C   UNL d   1      83.589  80.836  95.568  0.00  0.00     0.094 C 
ATOM      4  C   UNL d   1      82.991  79.483  96.060  0.00  0.00     0.014 C 
ATOM      5  C   UNL d   1      83.499  81.048  94.031  0.00  0.00     0.014 C 
ATOM      6  S   UNL d   1      82.080  81.966  96.033  0.00  0.00    -0.081 SA
ENDBRANCH   1   3
BRANCH   1   7
ATOM      7  C   UNL d   1      85.878  80.287  96.407  0.00  0.00     0.225 C 
ATOM      8  O   UNL d   1      86.161  79.916  97.584  0.00  0.00    -0.646 OA
ATOM      9  OXT UNL d   1      86.494  79.995  95.338  0.00  0.00    -0.646 OA
ENDBRANCH   1   7
TORSDOF 2
ENDMDL
MODEL 4
REMARK VINA RESULT:      -3.9     15.759     16.279
REMARK  2 active torsions:
REMARK  status: ('A' for Active; 'I' for Inactive)
REMARK    1  A    between atoms: C_2  and  CA_5 
REMARK    2  A    between atoms: CA_5  and  C_7 
ROOT
ATOM      1  CA  UNL d   1      76.960  68.711  87.418  0.00  0.00     0.397 C 
ATOM      2  N   UNL d   1      76.120  69.206  86.351  0.00  0.00     0.629 N 
ENDROOT
BRANCH   1   3
ATOM      3  C   UNL d   1      77.337  69.496  88.605  0.00  0.00     0.094 C 
ATOM      4  C   UNL d   1      78.848  69.864  88.723  0.00  0.00     0.014 C 
ATOM      5  C   UNL d   1      76.655  69.173  89.964  0.00  0.00     0.014 C 
ATOM      6  S   UNL d   1      76.646  71.303  88.438  0.00  0.00    -0.081 SA
ENDBRANCH   1   3
BRANCH   1   7
ATOM      7  C   UNL d   1      77.847  67.549  87.125  0.00  0.00     0.225 C 
ATOM      8  O   UNL d   1      78.508  67.607  86.047  0.00  0.00    -0.646 OA
ATOM      9  OXT UNL d   1      77.754  66.564  87.918  0.00  0.00    -0.646 OA
ENDBRANCH   1   7
TORSDOF 2
ENDMDL
MODEL 5
REMARK VINA RESULT:      -3.8     14.630     15.214
REMARK  2 active torsions:
REMARK  status: ('A' for Active; 'I' for Inactive)
REMARK    1  A    between atoms: C_2  and  CA_5 
REMARK    2  A    between atoms: CA_5  and  C_7 
ROOT
ATOM      1  CA  UNL d   1      75.516  69.789  90.111  0.00  0.00     0.397 C 
ATOM      2  N   UNL d   1      76.276  69.304  91.241  0.00  0.00     0.629 N 
ENDROOT
BRANCH   1   3
ATOM      3  C   UNL d   1      76.109  70.165  88.816  0.00  0.00     0.094 C 
ATOM      4  C   UNL d   1      76.297  71.694  88.575  0.00  0.00     0.014 C 
ATOM      5  C   UNL d   1      75.701  69.367  87.546  0.00  0.00     0.014 C 
ATOM      6  S   UNL d   1      77.986  69.669  88.792  0.00  0.00    -0.081 SA
ENDBRANCH   1   3
BRANCH   1   7
ATOM      7  C   UNL d   1      74.165  70.363  90.373  0.00  0.00     0.225 C 
ATOM      8  O   UNL d   1      73.211  69.886  89.690  0.00  0.00    -0.646 OA
ATOM      9  OXT UNL d   1      74.127  71.358  91.159  0.00  0.00    -0.646 OA
ENDBRANCH   1   7
TORSDOF 2
ENDMDL
MODEL 6
REMARK VINA RESULT:      -3.7     21.939     22.991
REMARK  2 active torsions:
REMARK  status: ('A' for Active; 'I' for Inactive)
REMARK    1  A    between atoms: C_2  and  CA_5 
REMARK    2  A    between atoms: CA_5  and  C_7 
ROOT
ATOM      1  CA  UNL d   1      63.005  89.856  93.247  0.00  0.00     0.397 C 
ATOM      2  N   UNL d   1      62.573  88.797  94.131  0.00  0.00     0.629 N 
ENDROOT
BRANCH   1   3
ATOM      3  C   UNL d   1      63.789  89.638  92.020  0.00  0.00     0.094 C 
ATOM      4  C   UNL d   1      65.095  88.803  92.188  0.00  0.00     0.014 C 
ATOM      5  C   UNL d   1      63.906  90.797  90.991  0.00  0.00     0.014 C 
ATOM      6  S   UNL d   1      62.846  88.405  90.854  0.00  0.00    -0.081 SA
ENDBRANCH   1   3
BRANCH   1   7
ATOM      7  C   UNL d   1      63.068  91.241  93.796  0.00  0.00     0.225 C 
ATOM      8  O   UNL d   1      64.130  91.553  94.410  0.00  0.00    -0.646 OA
ATOM      9  OXT UNL d   1      62.003  91.923  93.705  0.00  0.00    -0.646 OA
ENDBRANCH   1   7
TORSDOF 2
ENDMDL
MODEL 7
REMARK VINA RESULT:      -3.7     15.691     16.140
REMARK  2 active torsions:
REMARK  status: ('A' for Active; 'I' for Inactive)
REMARK    1  A    between atoms: C_2  and  CA_5 
REMARK    2  A    between atoms: CA_5  and  C_7 
ROOT
ATOM      1  CA  UNL d   1      77.990  69.075  88.035  0.00  0.00     0.397 C 
ATOM      2  N   UNL d   1      79.188  69.597  88.651  0.00  0.00     0.629 N 
ENDROOT
BRANCH   1   3
ATOM      3  C   UNL d   1      76.630  69.548  88.341  0.00  0.00     0.094 C 
ATOM      4  C   UNL d   1      76.188  69.421  89.831  0.00  0.00     0.014 C 
ATOM      5  C   UNL d   1      75.493  69.274  87.317  0.00  0.00     0.014 C 
ATOM      6  S   UNL d   1      76.571  71.485  88.221  0.00  0.00    -0.081 SA
ENDBRANCH   1   3
BRANCH   1   7
ATOM      7  C   UNL d   1      78.059  67.722  87.411  0.00  0.00     0.225 C 
ATOM      8  O   UNL d   1      77.821  66.740  88.173  0.00  0.00    -0.646 OA
ATOM      9  OXT UNL d   1      78.476  67.684  86.214  0.00  0.00    -0.646 OA
ENDBRANCH   1   7
TORSDOF 2
ENDMDL
MODEL 8
REMARK VINA RESULT:      -3.6     20.984     21.695
REMARK  2 active torsions:
REMARK  status: ('A' for Active; 'I' for Inactive)
REMARK    1  A    between atoms: C_2  and  CA_5 
REMARK    2  A    between atoms: CA_5  and  C_7 
ROOT
ATOM      1  CA  UNL d   1      64.821  75.057  90.159  0.00  0.00     0.397 C 
ATOM      2  N   UNL d   1      66.148  75.338  90.661  0.00  0.00     0.629 N 
ENDROOT
BRANCH   1   3
ATOM      3  C   UNL d   1      63.935  74.015  90.705  0.00  0.00     0.094 C 
ATOM      4  C   UNL d   1      63.682  72.787  89.779  0.00  0.00     0.014 C 
ATOM      5  C   UNL d   1      62.696  74.448  91.538  0.00  0.00     0.014 C 
ATOM      6  S   UNL d   1      64.844  73.073  92.138  0.00  0.00    -0.081 SA
ENDBRANCH   1   3
BRANCH   1   7
ATOM      7  C   UNL d   1      64.490  75.502  88.775  0.00  0.00     0.225 C 
ATOM      8  O   UNL d   1      65.266  75.103  87.858  0.00  0.00    -0.646 OA
ATOM      9  OXT UNL d   1      63.543  76.338  88.672  0.00  0.00    -0.646 OA
ENDBRANCH   1   7
TORSDOF 2
ENDMDL
MODEL 9
REMARK VINA RESULT:      -3.6     14.444     14.990
REMARK  2 active torsions:
REMARK  status: ('A' for Active; 'I' for Inactive)
REMARK    1  A    between atoms: C_2  and  CA_5 
REMARK    2  A    between atoms: CA_5  and  C_7 
ROOT
ATOM      1  CA  UNL d   1      75.765  70.773  89.847  0.00  0.00     0.397 C 
ATOM      2  N   UNL d   1      75.737  72.151  89.411  0.00  0.00     0.629 N 
ENDROOT
BRANCH   1   3
ATOM      3  C   UNL d   1      76.627  69.737  89.253  0.00  0.00     0.094 C 
ATOM      4  C   UNL d   1      76.291  69.334  87.785  0.00  0.00     0.014 C 
ATOM      5  C   UNL d   1      77.095  68.553  90.145  0.00  0.00     0.014 C 
ATOM      6  S   UNL d   1      78.393  70.471  88.920  0.00  0.00    -0.081 SA
ENDBRANCH   1   3
BRANCH   1   7
ATOM      7  C   UNL d   1      74.587  70.255  90.600  0.00  0.00     0.225 C 
ATOM      8  O   UNL d   1      74.759  70.050  91.837  0.00  0.00    -0.646 OA
ATOM      9  OXT UNL d   1      73.573  69.950  89.903  0.00  0.00    -0.646 OA
ENDBRANCH   1   7
TORSDOF 2
ENDMDL
MODEL 10
REMARK VINA RESULT:      -3.5     15.589     16.079
REMARK  2 active torsions:
REMARK  status: ('A' for Active; 'I' for Inactive)
REMARK    1  A    between atoms: C_2  and  CA_5 
REMARK    2  A    between atoms: CA_5  and  C_7 
ROOT
ATOM      1  CA  UNL d   1      78.061  67.607  88.299  0.00  0.00     0.397 C 
ATOM      2  N   UNL d   1      77.730  66.249  88.667  0.00  0.00     0.629 N 
ENDROOT
BRANCH   1   3
ATOM      3  C   UNL d   1      78.259  68.700  89.266  0.00  0.00     0.094 C 
ATOM      4  C   UNL d   1      77.052  69.001  90.206  0.00  0.00     0.014 C 
ATOM      5  C   UNL d   1      79.044  69.964  88.817  0.00  0.00     0.014 C 
ATOM      6  S   UNL d   1      79.515  68.138  90.635  0.00  0.00    -0.081 SA
ENDBRANCH   1   3
BRANCH   1   7
ATOM      7  C   UNL d   1      77.754  68.048  86.907  0.00  0.00     0.225 C 
ATOM      8  O   UNL d   1      76.653  68.650  86.740  0.00  0.00    -0.646 OA
ATOM      9  OXT UNL d   1      78.564  67.661  86.012  0.00  0.00    -0.646 OA
ENDBRANCH   1   7
TORSDOF 2
ENDMDL
MODEL 11
REMARK VINA RESULT:      -3.5     20.827     21.814
REMARK  2 active torsions:
REMARK  status: ('A' for Active; 'I' for Inactive)
REMARK    1  A    between atoms: C_2  and  CA_5 
REMARK    2  A    between atoms: CA_5  and  C_7 
ROOT
ATOM      1  CA  UNL d   1      65.390  90.096  93.900  0.00  0.00     0.397 C 
ATOM      2  N   UNL d   1      66.015  89.032  93.149  0.00  0.00     0.629 N 
ENDROOT
BRANCH   1   3
ATOM      3  C   UNL d   1      64.039  90.617  93.626  0.00  0.00     0.094 C 
ATOM      4  C   UNL d   1      63.866  91.375  92.274  0.00  0.00     0.014 C 
ATOM      5  C   UNL d   1      63.217  91.218  94.800  0.00  0.00     0.014 C 
ATOM      6  S   UNL d   1      62.836  89.141  93.248  0.00  0.00    -0.081 SA
ENDBRANCH   1   3
BRANCH   1   7
ATOM      7  C   UNL d   1      66.271  91.014  94.677  0.00  0.00     0.225 C 
ATOM      8  O   UNL d   1      66.502  90.685  95.878  0.00  0.00    -0.646 OA
ATOM      9  OXT UNL d   1      66.596  92.095  94.099  0.00  0.00    -0.646 OA
ENDBRANCH   1   7
TORSDOF 2
ENDMDL
MODEL 12
REMARK VINA RESULT:      -3.4     22.448     23.012
REMARK  2 active torsions:
REMARK  status: ('A' for Active; 'I' for Inactive)
REMARK    1  A    between atoms: C_2  and  CA_5 
REMARK    2  A    between atoms: CA_5  and  C_7 
ROOT
ATOM      1  CA  UNL d   1      64.031  90.976  94.328  0.00  0.00     0.397 C 
ATOM      2  N   UNL d   1      65.375  91.019  93.798  0.00  0.00     0.629 N 
ENDROOT
BRANCH   1   3
ATOM      3  C   UNL d   1      63.695  90.525  95.689  0.00  0.00     0.094 C 
ATOM      4  C   UNL d   1      62.186  90.233  95.953  0.00  0.00     0.014 C 
ATOM      5  C   UNL d   1      64.437  91.168  96.895  0.00  0.00     0.014 C 
ATOM      6  S   UNL d   1      64.356  88.721  95.961  0.00  0.00    -0.081 SA
ENDBRANCH   1   3
BRANCH   1   7
ATOM      7  C   UNL d   1      62.899  90.945  93.358  0.00  0.00     0.225 C 
ATOM      8  O   UNL d   1      62.799  89.903  92.647  0.00  0.00    -0.646 OA
ATOM      9  OXT UNL d   1      62.231  92.017  93.252  0.00  0.00    -0.646 OA
ENDBRANCH   1   7
TORSDOF 2
ENDMDL
MODEL 13
REMARK VINA RESULT:      -3.4     22.325     23.098
REMARK  2 active torsions:
REMARK  status: ('A' for Active; 'I' for Inactive)
REMARK    1  A    between atoms: C_2  and  CA_5 
REMARK    2  A    between atoms: CA_5  and  C_7 
ROOT
ATOM      1  CA  UNL d   1      63.913  89.997  93.086  0.00  0.00     0.397 C 
ATOM      2  N   UNL d   1      64.647  89.061  92.264  0.00  0.00     0.629 N 
ENDROOT
BRANCH   1   3
ATOM      3  C   UNL d   1      62.724  89.644  93.880  0.00  0.00     0.094 C 
ATOM      4  C   UNL d   1      61.681  88.730  93.168  0.00  0.00     0.014 C 
ATOM      5  C   UNL d   1      62.095  90.722  94.806  0.00  0.00     0.014 C 
ATOM      6  S   UNL d   1      63.226  88.409  95.290  0.00  0.00    -0.081 SA
ENDBRANCH   1   3
BRANCH   1   7
ATOM      7  C   UNL d   1      64.062  91.451  92.790  0.00  0.00     0.225 C 
ATOM      8  O   UNL d   1      63.277  91.929  91.919  0.00  0.00    -0.646 OA
ATOM      9  OXT UNL d   1      65.043  92.033  93.344  0.00  0.00    -0.646 OA
ENDBRANCH   1   7
TORSDOF 2
ENDMDL
MODEL 14
REMARK VINA RESULT:      -3.4     22.211     22.774
REMARK  2 active torsions:
REMARK  status: ('A' for Active; 'I' for Inactive)
REMARK    1  A    between atoms: C_2  and  CA_5 
REMARK    2  A    between atoms: CA_5  and  C_7 
ROOT
ATOM      1  CA  UNL d   1      64.026  89.945  92.942  0.00  0.00     0.397 C 
ATOM      2  N   UNL d   1      65.277  89.682  93.617  0.00  0.00     0.629 N 
ENDROOT
BRANCH   1   3
ATOM      3  C   UNL d   1      63.380  89.008  92.007  0.00  0.00     0.094 C 
ATOM      4  C   UNL d   1      63.350  89.454  90.513  0.00  0.00     0.014 C 
ATOM      5  C   UNL d   1      62.103  88.251  92.468  0.00  0.00     0.014 C 
ATOM      6  S   UNL d   1      64.497  87.437  91.782  0.00  0.00    -0.081 SA
ENDBRANCH   1   3
BRANCH   1   7
ATOM      7  C   UNL d   1      63.586  91.364  92.815  0.00  0.00     0.225 C 
ATOM      8  O   UNL d   1      64.467  92.192  92.439  0.00  0.00    -0.646 OA
ATOM      9  OXT UNL d   1      62.412  91.619  93.220  0.00  0.00    -0.646 OA
ENDBRANCH   1   7
TORSDOF 2
ENDMDL
MODEL 15
REMARK VINA RESULT:      -3.3     20.697     21.466
REMARK  2 active torsions:
REMARK  status: ('A' for Active; 'I' for Inactive)
REMARK    1  A    between atoms: C_2  and  CA_5 
REMARK    2  A    between atoms: CA_5  and  C_7 
ROOT
ATOM      1  CA  UNL d   1      65.369  90.024  94.320  0.00  0.00     0.397 C 
ATOM      2  N   UNL d   1      65.164  89.095  93.232  0.00  0.00     0.629 N 
ENDROOT
BRANCH   1   3
ATOM      3  C   UNL d   1      64.796  89.858  95.667  0.00  0.00     0.094 C 
ATOM      4  C   UNL d   1      63.763  90.942  96.102  0.00  0.00     0.014 C 
ATOM      5  C   UNL d   1      65.716  89.360  96.816  0.00  0.00     0.014 C 
ATOM      6  S   UNL d   1      63.589  88.337  95.678  0.00  0.00    -0.081 SA
ENDBRANCH   1   3
BRANCH   1   7
ATOM      7  C   UNL d   1      65.786  91.415  93.982  0.00  0.00     0.225 C 
ATOM      8  O   UNL d   1      66.807  91.857  94.586  0.00  0.00    -0.646 OA
ATOM      9  OXT UNL d   1      65.002  92.060  93.221  0.00  0.00    -0.646 OA
ENDBRANCH   1   7
TORSDOF 2
ENDMDL
MODEL 16
REMARK VINA RESULT:      -3.3     21.880     22.610
REMARK  2 active torsions:
REMARK  status: ('A' for Active; 'I' for Inactive)
REMARK    1  A    between atoms: C_2  and  CA_5 
REMARK    2  A    between atoms: CA_5  and  C_7 
ROOT
ATOM      1  CA  UNL d   1      63.277  90.480  93.634  0.00  0.00     0.397 C 
ATOM      2  N   UNL d   1      62.294  90.885  94.613  0.00  0.00     0.629 N 
ENDROOT
BRANCH   1   3
ATOM      3  C   UNL d   1      63.980  89.186  93.656  0.00  0.00     0.094 C 
ATOM      4  C   UNL d   1      64.751  88.854  94.970  0.00  0.00     0.014 C 
ATOM      5  C   UNL d   1      64.691  88.699  92.362  0.00  0.00     0.014 C 
ATOM      6  S   UNL d   1      62.684  87.743  93.749  0.00  0.00    -0.081 SA
ENDBRANCH   1   3
BRANCH   1   7
ATOM      7  C   UNL d   1      63.949  91.547  92.838  0.00  0.00     0.225 C 
ATOM      8  O   UNL d   1      65.020  92.017  93.323  0.00  0.00    -0.646 OA
ATOM      9  OXT UNL d   1      63.315  91.965  91.823  0.00  0.00    -0.646 OA
ENDBRANCH   1   7
TORSDOF 2
ENDMDL
MODEL 17
REMARK VINA RESULT:      -3.2     15.386     15.854
REMARK  2 active torsions:
REMARK  status: ('A' for Active; 'I' for Inactive)
REMARK    1  A    between atoms: C_2  and  CA_5 
REMARK    2  A    between atoms: CA_5  and  C_7 
ROOT
ATOM      1  CA  UNL d   1      71.868  88.105 100.757  0.00  0.00     0.397 C 
ATOM      2  N   UNL d   1      71.925  88.030  99.314  0.00  0.00     0.629 N 
ENDROOT
BRANCH   1   3
ATOM      3  C   UNL d   1      71.030  87.232 101.596  0.00  0.00     0.094 C 
ATOM      4  C   UNL d   1      71.160  87.443 103.135  0.00  0.00     0.014 C 
ATOM      5  C   UNL d   1      70.837  85.748 101.174  0.00  0.00     0.014 C 
ATOM      6  S   UNL d   1      69.168  87.752 101.422  0.00  0.00    -0.081 SA
ENDBRANCH   1   3
BRANCH   1   7
ATOM      7  C   UNL d   1      72.302  89.374 101.408  0.00  0.00     0.225 C 
ATOM      8  O   UNL d   1      71.457  90.316 101.418  0.00  0.00    -0.646 OA
ATOM      9  OXT UNL d   1      73.516  89.425 101.769  0.00  0.00    -0.646 OA
ENDBRANCH   1   7
TORSDOF 2
ENDMDL
MODEL 18
REMARK VINA RESULT:      -3.2     15.017     15.504
REMARK  2 active torsions:
REMARK  status: ('A' for Active; 'I' for Inactive)
REMARK    1  A    between atoms: C_2  and  CA_5 
REMARK    2  A    between atoms: CA_5  and  C_7 
ROOT
ATOM      1  CA  UNL d   1      76.290  69.485  88.793  0.00  0.00     0.397 C 
ATOM      2  N   UNL d   1      75.432  69.831  89.903  0.00  0.00     0.629 N 
ENDROOT
BRANCH   1   3
ATOM      3  C   UNL d   1      77.531  68.702  88.922  0.00  0.00     0.094 C 
ATOM      4  C   UNL d   1      78.858  69.521  88.874  0.00  0.00     0.014 C 
ATOM      5  C   UNL d   1      77.617  67.316  88.225  0.00  0.00     0.014 C 
ATOM      6  S   UNL d   1      77.702  68.044  90.740  0.00  0.00    -0.081 SA
ENDBRANCH   1   3
BRANCH   1   7
ATOM      7  C   UNL d   1      76.189  70.303  87.551  0.00  0.00     0.225 C 
ATOM      8  O   UNL d   1      76.358  71.551  87.686  0.00  0.00    -0.646 OA
ATOM      9  OXT UNL d   1      75.817  69.686  86.508  0.00  0.00    -0.646 OA
ENDBRANCH   1   7
TORSDOF 2
ENDMDL
MODEL 19
REMARK VINA RESULT:      -3.2     20.971     21.993
REMARK  2 active torsions:
REMARK  status: ('A' for Active; 'I' for Inactive)
REMARK    1  A    between atoms: C_2  and  CA_5 
REMARK    2  A    between atoms: CA_5  and  C_7 
ROOT
ATOM      1  CA  UNL d   1      63.960  90.031  93.530  0.00  0.00     0.397 C 
ATOM      2  N   UNL d   1      62.800  89.777  94.355  0.00  0.00     0.629 N 
ENDROOT
BRANCH   1   3
ATOM      3  C   UNL d   1      65.350  89.879  93.991  0.00  0.00     0.094 C 
ATOM      4  C   UNL d   1      66.164  91.201  94.137  0.00  0.00     0.014 C 
ATOM      5  C   UNL d   1      66.184  88.676  93.470  0.00  0.00     0.014 C 
ATOM      6  S   UNL d   1      65.365  89.362  95.862  0.00  0.00    -0.081 SA
ENDBRANCH   1   3
BRANCH   1   7
ATOM      7  C   UNL d   1      63.786  90.901  92.332  0.00  0.00     0.225 C 
ATOM      8  O   UNL d   1      63.078  91.938  92.490  0.00  0.00    -0.646 OA
ATOM      9  OXT UNL d   1      64.255  90.448  91.244  0.00  0.00    -0.646 OA
ENDBRANCH   1   7
TORSDOF 2
ENDMDL
MODEL 20
REMARK VINA RESULT:      -3.2     14.983     15.563
REMARK  2 active torsions:
REMARK  status: ('A' for Active; 'I' for Inactive)
REMARK    1  A    between atoms: C_2  and  CA_5 
REMARK    2  A    between atoms: CA_5  and  C_7 
ROOT
ATOM      1  CA  UNL d   1      76.926  69.226  88.812  0.00  0.00     0.397 C 
ATOM      2  N   UNL d   1      77.297  68.241  89.802  0.00  0.00     0.629 N 
ENDROOT
BRANCH   1   3
ATOM      3  C   UNL d   1      76.374  70.553  89.133  0.00  0.00     0.094 C 
ATOM      4  C   UNL d   1      74.980  70.556  89.832  0.00  0.00     0.014 C 
ATOM      5  C   UNL d   1      76.577  71.714  88.119  0.00  0.00     0.014 C 
ATOM      6  S   UNL d   1      77.390  71.349  90.583  0.00  0.00    -0.081 SA
ENDBRANCH   1   3
BRANCH   1   7
ATOM      7  C   UNL d   1      76.658  68.753  87.423  0.00  0.00     0.225 C 
ATOM      8  O   UNL d   1      77.672  68.432  86.735  0.00  0.00    -0.646 OA
ATOM      9  OXT UNL d   1      75.457  68.842  87.028  0.00  0.00    -0.646 OA
ENDBRANCH   1   7
TORSDOF 2
ENDMDL
