MODEL 1
REMARK VINA RESULT:      -1.1      0.000      0.000
REMARK  5 active torsions:
REMARK  status: ('A' for Active; 'I' for Inactive)
REMARK    1  A    between atoms: C_3  and  C_4 
REMARK    2  A    between atoms: C_3  and  C_12 
REMARK    3  A    between atoms: C_3  and  C_18 
REMARK    4  A    between atoms: C_4  and  C_5 
REMARK    5  A    between atoms: C_5  and  N_6 
ROOT
ATOM      1 CL   UNL d   1      67.188  88.744  77.752  0.00  0.00     0.000 Cl
ENDROOT
TORSDOF 5
ENDMDL
MODEL 2
REMARK VINA RESULT:      -1.1     16.662     16.662
REMARK  5 active torsions:
REMARK  status: ('A' for Active; 'I' for Inactive)
REMARK    1  A    between atoms: C_3  and  C_4 
REMARK    2  A    between atoms: C_3  and  C_12 
REMARK    3  A    between atoms: C_3  and  C_18 
REMARK    4  A    between atoms: C_4  and  C_5 
REMARK    5  A    between atoms: C_5  and  N_6 
ROOT
ATOM      1 CL   UNL d   1      79.243  78.208  82.364  0.00  0.00     0.000 Cl
ENDROOT
TORSDOF 5
ENDMDL
MODEL 3
REMARK VINA RESULT:      -1.0     19.845     19.845
REMARK  5 active torsions:
REMARK  status: ('A' for Active; 'I' for Inactive)
REMARK    1  A    between atoms: C_3  and  C_4 
REMARK    2  A    between atoms: C_3  and  C_12 
REMARK    3  A    between atoms: C_3  and  C_18 
REMARK    4  A    between atoms: C_4  and  C_5 
REMARK    5  A    between atoms: C_5  and  N_6 
ROOT
ATOM      1 CL   UNL d   1      82.956  76.714  78.430  0.00  0.00     0.000 Cl
ENDROOT
TORSDOF 5
ENDMDL
MODEL 4
REMARK VINA RESULT:      -0.9     29.518     29.518
REMARK  5 active torsions:
REMARK  status: ('A' for Active; 'I' for Inactive)
REMARK    1  A    between atoms: C_3  and  C_4 
REMARK    2  A    between atoms: C_3  and  C_12 
REMARK    3  A    between atoms: C_3  and  C_18 
REMARK    4  A    between atoms: C_4  and  C_5 
REMARK    5  A    between atoms: C_5  and  N_6 
ROOT
ATOM      1 CL   UNL d   1      56.591  63.066  87.736  0.00  0.00     0.000 Cl
ENDROOT
TORSDOF 5
ENDMDL
MODEL 5
REMARK VINA RESULT:      -0.9     18.462     18.462
REMARK  5 active torsions:
REMARK  status: ('A' for Active; 'I' for Inactive)
REMARK    1  A    between atoms: C_3  and  C_4 
REMARK    2  A    between atoms: C_3  and  C_12 
REMARK    3  A    between atoms: C_3  and  C_18 
REMARK    4  A    between atoms: C_4  and  C_5 
REMARK    5  A    between atoms: C_5  and  N_6 
ROOT
ATOM      1 CL   UNL d   1      80.684  76.569  80.986  0.00  0.00     0.000 Cl
ENDROOT
TORSDOF 5
ENDMDL
MODEL 6
REMARK VINA RESULT:      -0.9     38.736     38.736
REMARK  5 active torsions:
REMARK  status: ('A' for Active; 'I' for Inactive)
REMARK    1  A    between atoms: C_3  and  C_4 
REMARK    2  A    between atoms: C_3  and  C_12 
REMARK    3  A    between atoms: C_3  and  C_18 
REMARK    4  A    between atoms: C_4  and  C_5 
REMARK    5  A    between atoms: C_5  and  N_6 
ROOT
ATOM      1 CL   UNL d   1      73.499  58.604 101.251  0.00  0.00     0.000 Cl
ENDROOT
TORSDOF 5
ENDMDL
MODEL 7
REMARK VINA RESULT:      -0.9     19.378     19.378
REMARK  5 active torsions:
REMARK  status: ('A' for Active; 'I' for Inactive)
REMARK    1  A    between atoms: C_3  and  C_4 
REMARK    2  A    between atoms: C_3  and  C_12 
REMARK    3  A    between atoms: C_3  and  C_18 
REMARK    4  A    between atoms: C_4  and  C_5 
REMARK    5  A    between atoms: C_5  and  N_6 
ROOT
ATOM      1 CL   UNL d   1      57.094  74.249  85.723  0.00  0.00     0.000 Cl
ENDROOT
TORSDOF 5
ENDMDL
MODEL 8
REMARK VINA RESULT:      -0.9     26.721     26.721
REMARK  5 active torsions:
REMARK  status: ('A' for Active; 'I' for Inactive)
REMARK    1  A    between atoms: C_3  and  C_4 
REMARK    2  A    between atoms: C_3  and  C_12 
REMARK    3  A    between atoms: C_3  and  C_18 
REMARK    4  A    between atoms: C_4  and  C_5 
REMARK    5  A    between atoms: C_5  and  N_6 
ROOT
ATOM      1 CL   UNL d   1      86.260  81.050  94.812  0.00  0.00     0.000 Cl
ENDROOT
TORSDOF 5
ENDMDL
MODEL 9
REMARK VINA RESULT:      -0.8     32.024     32.024
REMARK  5 active torsions:
REMARK  status: ('A' for Active; 'I' for Inactive)
REMARK    1  A    between atoms: C_3  and  C_4 
REMARK    2  A    between atoms: C_3  and  C_12 
REMARK    3  A    between atoms: C_3  and  C_18 
REMARK    4  A    between atoms: C_4  and  C_5 
REMARK    5  A    between atoms: C_5  and  N_6 
ROOT
ATOM      1 CL   UNL d   1      68.340  68.436 102.486  0.00  0.00     0.000 Cl
ENDROOT
TORSDOF 5
ENDMDL
MODEL 10
REMARK VINA RESULT:      -0.8     25.220     25.220
REMARK  5 active torsions:
REMARK  status: ('A' for Active; 'I' for Inactive)
REMARK    1  A    between atoms: C_3  and  C_4 
REMARK    2  A    between atoms: C_3  and  C_12 
REMARK    3  A    between atoms: C_3  and  C_18 
REMARK    4  A    between atoms: C_4  and  C_5 
REMARK    5  A    between atoms: C_5  and  N_6 
ROOT
ATOM      1 CL   UNL d   1      78.276  67.757  86.276  0.00  0.00     0.000 Cl
ENDROOT
TORSDOF 5
ENDMDL
MODEL 11
REMARK VINA RESULT:      -0.8     33.216     33.216
REMARK  5 active torsions:
REMARK  status: ('A' for Active; 'I' for Inactive)
REMARK    1  A    between atoms: C_3  and  C_4 
REMARK    2  A    between atoms: C_3  and  C_12 
REMARK    3  A    between atoms: C_3  and  C_18 
REMARK    4  A    between atoms: C_4  and  C_5 
REMARK    5  A    between atoms: C_5  and  N_6 
ROOT
ATOM      1 CL   UNL d   1      52.813  60.488  87.665  0.00  0.00     0.000 Cl
ENDROOT
TORSDOF 5
ENDMDL
MODEL 12
REMARK VINA RESULT:      -0.8     30.028     30.028
REMARK  5 active torsions:
REMARK  status: ('A' for Active; 'I' for Inactive)
REMARK    1  A    between atoms: C_3  and  C_4 
REMARK    2  A    between atoms: C_3  and  C_12 
REMARK    3  A    between atoms: C_3  and  C_18 
REMARK    4  A    between atoms: C_4  and  C_5 
REMARK    5  A    between atoms: C_5  and  N_6 
ROOT
ATOM      1 CL   UNL d   1      54.559  62.866  86.269  0.00  0.00     0.000 Cl
ENDROOT
TORSDOF 5
ENDMDL
MODEL 13
REMARK VINA RESULT:      -0.8     29.499     29.499
REMARK  5 active torsions:
REMARK  status: ('A' for Active; 'I' for Inactive)
REMARK    1  A    between atoms: C_3  and  C_4 
REMARK    2  A    between atoms: C_3  and  C_12 
REMARK    3  A    between atoms: C_3  and  C_18 
REMARK    4  A    between atoms: C_4  and  C_5 
REMARK    5  A    between atoms: C_5  and  N_6 
ROOT
ATOM      1 CL   UNL d   1      56.685  70.845  98.717  0.00  0.00     0.000 Cl
ENDROOT
TORSDOF 5
ENDMDL
MODEL 14
REMARK VINA RESULT:      -0.8     16.918     16.918
REMARK  5 active torsions:
REMARK  status: ('A' for Active; 'I' for Inactive)
REMARK    1  A    between atoms: C_3  and  C_4 
REMARK    2  A    between atoms: C_3  and  C_12 
REMARK    3  A    between atoms: C_3  and  C_18 
REMARK    4  A    between atoms: C_4  and  C_5 
REMARK    5  A    between atoms: C_5  and  N_6 
ROOT
ATOM      1 CL   UNL d   1      65.377  74.928  87.346  0.00  0.00     0.000 Cl
ENDROOT
TORSDOF 5
ENDMDL
MODEL 15
REMARK VINA RESULT:      -0.8     28.948     28.948
REMARK  5 active torsions:
REMARK  status: ('A' for Active; 'I' for Inactive)
REMARK    1  A    between atoms: C_3  and  C_4 
REMARK    2  A    between atoms: C_3  and  C_12 
REMARK    3  A    between atoms: C_3  and  C_18 
REMARK    4  A    between atoms: C_4  and  C_5 
REMARK    5  A    between atoms: C_5  and  N_6 
ROOT
ATOM      1 CL   UNL d   1      60.555  69.346  98.190  0.00  0.00     0.000 Cl
ENDROOT
TORSDOF 5
ENDMDL
MODEL 16
REMARK VINA RESULT:      -0.7     27.269     27.269
REMARK  5 active torsions:
REMARK  status: ('A' for Active; 'I' for Inactive)
REMARK    1  A    between atoms: C_3  and  C_4 
REMARK    2  A    between atoms: C_3  and  C_12 
REMARK    3  A    between atoms: C_3  and  C_18 
REMARK    4  A    between atoms: C_4  and  C_5 
REMARK    5  A    between atoms: C_5  and  N_6 
ROOT
ATOM      1 CL   UNL d   1      54.904  72.838  96.184  0.00  0.00     0.000 Cl
ENDROOT
TORSDOF 5
ENDMDL
MODEL 17
REMARK VINA RESULT:      -0.7     27.927     27.927
REMARK  5 active torsions:
REMARK  status: ('A' for Active; 'I' for Inactive)
REMARK    1  A    between atoms: C_3  and  C_4 
REMARK    2  A    between atoms: C_3  and  C_12 
REMARK    3  A    between atoms: C_3  and  C_18 
REMARK    4  A    between atoms: C_4  and  C_5 
REMARK    5  A    between atoms: C_5  and  N_6 
ROOT
ATOM      1 CL   UNL d   1      80.404  64.169  76.605  0.00  0.00     0.000 Cl
ENDROOT
TORSDOF 5
ENDMDL
MODEL 18
REMARK VINA RESULT:      -0.7     23.195     23.195
REMARK  5 active torsions:
REMARK  status: ('A' for Active; 'I' for Inactive)
REMARK    1  A    between atoms: C_3  and  C_4 
REMARK    2  A    between atoms: C_3  and  C_12 
REMARK    3  A    between atoms: C_3  and  C_18 
REMARK    4  A    between atoms: C_4  and  C_5 
REMARK    5  A    between atoms: C_5  and  N_6 
ROOT
ATOM      1 CL   UNL d   1      75.723  69.128  86.716  0.00  0.00     0.000 Cl
ENDROOT
TORSDOF 5
ENDMDL
MODEL 19
REMARK VINA RESULT:      -0.7     14.367     14.367
REMARK  5 active torsions:
REMARK  status: ('A' for Active; 'I' for Inactive)
REMARK    1  A    between atoms: C_3  and  C_4 
REMARK    2  A    between atoms: C_3  and  C_12 
REMARK    3  A    between atoms: C_3  and  C_18 
REMARK    4  A    between atoms: C_4  and  C_5 
REMARK    5  A    between atoms: C_5  and  N_6 
ROOT
ATOM      1 CL   UNL d   1      63.837  91.594  91.429  0.00  0.00     0.000 Cl
ENDROOT
TORSDOF 5
ENDMDL
MODEL 20
REMARK VINA RESULT:      -0.7     12.592     12.592
REMARK  5 active torsions:
REMARK  status: ('A' for Active; 'I' for Inactive)
REMARK    1  A    between atoms: C_3  and  C_4 
REMARK    2  A    between atoms: C_3  and  C_12 
REMARK    3  A    between atoms: C_3  and  C_18 
REMARK    4  A    between atoms: C_4  and  C_5 
REMARK    5  A    between atoms: C_5  and  N_6 
ROOT
ATOM      1 CL   UNL d   1      61.428  87.835  88.913  0.00  0.00     0.000 Cl
ENDROOT
TORSDOF 5
ENDMDL
