MODEL 1
REMARK VINA RESULT:      -1.3      0.000      0.000
REMARK  3 active torsions:
REMARK  status: ('A' for Active; 'I' for Inactive)
REMARK    1  A    between atoms: C_1  and  C_2 
REMARK    2  A    between atoms: C_1  and  C_6 
REMARK    3  A    between atoms: C_2  and  C_3 
ROOT
ATOM      1 FE   UNL d   2      69.550  64.476  88.011  0.00  0.00     0.000 Fe
ENDROOT
TORSDOF 3
ENDMDL
MODEL 2
REMARK VINA RESULT:      -1.2     28.518     28.518
REMARK  3 active torsions:
REMARK  status: ('A' for Active; 'I' for Inactive)
REMARK    1  A    between atoms: C_1  and  C_2 
REMARK    2  A    between atoms: C_1  and  C_6 
REMARK    3  A    between atoms: C_2  and  C_3 
ROOT
ATOM      1 FE   UNL d   2      79.756  90.280  94.592  0.00  0.00     0.000 Fe
ENDROOT
TORSDOF 3
ENDMDL
MODEL 3
REMARK VINA RESULT:      -1.2     19.836     19.836
REMARK  3 active torsions:
REMARK  status: ('A' for Active; 'I' for Inactive)
REMARK    1  A    between atoms: C_1  and  C_2 
REMARK    2  A    between atoms: C_1  and  C_6 
REMARK    3  A    between atoms: C_2  and  C_3 
ROOT
ATOM      1 FE   UNL d   2      65.877  80.050  76.289  0.00  0.00     0.000 Fe
ENDROOT
TORSDOF 3
ENDMDL
MODEL 4
REMARK VINA RESULT:      -1.2      8.732      8.732
REMARK  3 active torsions:
REMARK  status: ('A' for Active; 'I' for Inactive)
REMARK    1  A    between atoms: C_1  and  C_2 
REMARK    2  A    between atoms: C_1  and  C_6 
REMARK    3  A    between atoms: C_2  and  C_3 
ROOT
ATOM      1 FE   UNL d   2      66.580  60.187  81.009  0.00  0.00     0.000 Fe
ENDROOT
TORSDOF 3
ENDMDL
MODEL 5
REMARK VINA RESULT:      -1.2     16.299     16.299
REMARK  3 active torsions:
REMARK  status: ('A' for Active; 'I' for Inactive)
REMARK    1  A    between atoms: C_1  and  C_2 
REMARK    2  A    between atoms: C_1  and  C_6 
REMARK    3  A    between atoms: C_2  and  C_3 
ROOT
ATOM      1 FE   UNL d   2      55.005  63.125  95.242  0.00  0.00     0.000 Fe
ENDROOT
TORSDOF 3
ENDMDL
MODEL 6
REMARK VINA RESULT:      -1.1      4.326      4.326
REMARK  3 active torsions:
REMARK  status: ('A' for Active; 'I' for Inactive)
REMARK    1  A    between atoms: C_1  and  C_2 
REMARK    2  A    between atoms: C_1  and  C_6 
REMARK    3  A    between atoms: C_2  and  C_3 
ROOT
ATOM      1 FE   UNL d   2      69.978  60.443  86.507  0.00  0.00     0.000 Fe
ENDROOT
TORSDOF 3
ENDMDL
MODEL 7
REMARK VINA RESULT:      -1.1     18.293     18.293
REMARK  3 active torsions:
REMARK  status: ('A' for Active; 'I' for Inactive)
REMARK    1  A    between atoms: C_1  and  C_2 
REMARK    2  A    between atoms: C_1  and  C_6 
REMARK    3  A    between atoms: C_2  and  C_3 
ROOT
ATOM      1 FE   UNL d   2      61.014  79.652  82.403  0.00  0.00     0.000 Fe
ENDROOT
TORSDOF 3
ENDMDL
MODEL 8
REMARK VINA RESULT:      -1.1     19.074     19.074
REMARK  3 active torsions:
REMARK  status: ('A' for Active; 'I' for Inactive)
REMARK    1  A    between atoms: C_1  and  C_2 
REMARK    2  A    between atoms: C_1  and  C_6 
REMARK    3  A    between atoms: C_2  and  C_3 
ROOT
ATOM      1 FE   UNL d   2      55.087  76.897  88.637  0.00  0.00     0.000 Fe
ENDROOT
TORSDOF 3
ENDMDL
MODEL 9
REMARK VINA RESULT:      -1.1     11.628     11.628
REMARK  3 active torsions:
REMARK  status: ('A' for Active; 'I' for Inactive)
REMARK    1  A    between atoms: C_1  and  C_2 
REMARK    2  A    between atoms: C_1  and  C_6 
REMARK    3  A    between atoms: C_2  and  C_3 
ROOT
ATOM      1 FE   UNL d   2      63.404  61.694  97.482  0.00  0.00     0.000 Fe
ENDROOT
TORSDOF 3
ENDMDL
MODEL 10
REMARK VINA RESULT:      -1.0     18.945     18.945
REMARK  3 active torsions:
REMARK  status: ('A' for Active; 'I' for Inactive)
REMARK    1  A    between atoms: C_1  and  C_2 
REMARK    2  A    between atoms: C_1  and  C_6 
REMARK    3  A    between atoms: C_2  and  C_3 
ROOT
ATOM      1 FE   UNL d   2      73.045  62.433 106.518  0.00  0.00     0.000 Fe
ENDROOT
TORSDOF 3
ENDMDL
MODEL 11
REMARK VINA RESULT:      -1.0     26.431     26.431
REMARK  3 active torsions:
REMARK  status: ('A' for Active; 'I' for Inactive)
REMARK    1  A    between atoms: C_1  and  C_2 
REMARK    2  A    between atoms: C_1  and  C_6 
REMARK    3  A    between atoms: C_2  and  C_3 
ROOT
ATOM      1 FE   UNL d   2      75.032  90.168  90.923  0.00  0.00     0.000 Fe
ENDROOT
TORSDOF 3
ENDMDL
MODEL 12
REMARK VINA RESULT:      -1.0      6.728      6.728
REMARK  3 active torsions:
REMARK  status: ('A' for Active; 'I' for Inactive)
REMARK    1  A    between atoms: C_1  and  C_2 
REMARK    2  A    between atoms: C_1  and  C_6 
REMARK    3  A    between atoms: C_2  and  C_3 
ROOT
ATOM      1 FE   UNL d   2      73.062  69.679  85.589  0.00  0.00     0.000 Fe
ENDROOT
TORSDOF 3
ENDMDL
MODEL 13
REMARK VINA RESULT:      -1.0     17.047     17.047
REMARK  3 active torsions:
REMARK  status: ('A' for Active; 'I' for Inactive)
REMARK    1  A    between atoms: C_1  and  C_2 
REMARK    2  A    between atoms: C_1  and  C_6 
REMARK    3  A    between atoms: C_2  and  C_3 
ROOT
ATOM      1 FE   UNL d   2      77.856  76.721  79.546  0.00  0.00     0.000 Fe
ENDROOT
TORSDOF 3
ENDMDL
MODEL 14
REMARK VINA RESULT:      -1.0     10.329     10.329
REMARK  3 active torsions:
REMARK  status: ('A' for Active; 'I' for Inactive)
REMARK    1  A    between atoms: C_1  and  C_2 
REMARK    2  A    between atoms: C_1  and  C_6 
REMARK    3  A    between atoms: C_2  and  C_3 
ROOT
ATOM      1 FE   UNL d   2      63.499  65.574  96.310  0.00  0.00     0.000 Fe
ENDROOT
TORSDOF 3
ENDMDL
MODEL 15
REMARK VINA RESULT:      -1.0     28.540     28.540
REMARK  3 active torsions:
REMARK  status: ('A' for Active; 'I' for Inactive)
REMARK    1  A    between atoms: C_1  and  C_2 
REMARK    2  A    between atoms: C_1  and  C_6 
REMARK    3  A    between atoms: C_2  and  C_3 
ROOT
ATOM      1 FE   UNL d   2      79.166  91.346  88.310  0.00  0.00     0.000 Fe
ENDROOT
TORSDOF 3
ENDMDL
MODEL 16
REMARK VINA RESULT:      -1.0      6.741      6.741
REMARK  3 active torsions:
REMARK  status: ('A' for Active; 'I' for Inactive)
REMARK    1  A    between atoms: C_1  and  C_2 
REMARK    2  A    between atoms: C_1  and  C_6 
REMARK    3  A    between atoms: C_2  and  C_3 
ROOT
ATOM      1 FE   UNL d   2      71.934  65.788  94.179  0.00  0.00     0.000 Fe
ENDROOT
TORSDOF 3
ENDMDL
MODEL 17
REMARK VINA RESULT:      -1.0     15.868     15.868
REMARK  3 active torsions:
REMARK  status: ('A' for Active; 'I' for Inactive)
REMARK    1  A    between atoms: C_1  and  C_2 
REMARK    2  A    between atoms: C_1  and  C_6 
REMARK    3  A    between atoms: C_2  and  C_3 
ROOT
ATOM      1 FE   UNL d   2      65.450  69.648  73.581  0.00  0.00     0.000 Fe
ENDROOT
TORSDOF 3
ENDMDL
MODEL 18
REMARK VINA RESULT:      -1.0     17.898     17.898
REMARK  3 active torsions:
REMARK  status: ('A' for Active; 'I' for Inactive)
REMARK    1  A    between atoms: C_1  and  C_2 
REMARK    2  A    between atoms: C_1  and  C_6 
REMARK    3  A    between atoms: C_2  and  C_3 
ROOT
ATOM      1 FE   UNL d   2      55.583  75.596  86.740  0.00  0.00     0.000 Fe
ENDROOT
TORSDOF 3
ENDMDL
MODEL 19
REMARK VINA RESULT:      -0.9      9.121      9.121
REMARK  3 active torsions:
REMARK  status: ('A' for Active; 'I' for Inactive)
REMARK    1  A    between atoms: C_1  and  C_2 
REMARK    2  A    between atoms: C_1  and  C_6 
REMARK    3  A    between atoms: C_2  and  C_3 
ROOT
ATOM      1 FE   UNL d   2      65.273  66.902  95.695  0.00  0.00     0.000 Fe
ENDROOT
TORSDOF 3
ENDMDL
MODEL 20
REMARK VINA RESULT:      -0.9     20.344     20.344
REMARK  3 active torsions:
REMARK  status: ('A' for Active; 'I' for Inactive)
REMARK    1  A    between atoms: C_1  and  C_2 
REMARK    2  A    between atoms: C_1  and  C_6 
REMARK    3  A    between atoms: C_2  and  C_3 
ROOT
ATOM      1 FE   UNL d   2      58.789  61.208 104.964  0.00  0.00     0.000 Fe
ENDROOT
TORSDOF 3
ENDMDL
