MODEL 1
REMARK VINA RESULT:      -7.8      0.000      0.000
REMARK  4 active torsions:
REMARK  status: ('A' for Active; 'I' for Inactive)
REMARK    1  A    between atoms: C_4  and  C_5 
REMARK    2  A    between atoms: C_12  and  N_13 
REMARK    3  A    between atoms: C_16  and  S_17 
REMARK    4  A    between atoms: S_17  and  C_19 
ROOT
ATOM      1  N   UNL d   1      76.260  70.849  89.592  0.00  0.00    -0.214 N 
ATOM      2  C   UNL d   1      75.055  71.254  90.128  0.00  0.00     0.163 A 
ATOM      3  N   UNL d   1      73.874  70.467  90.254  0.00  0.00    -0.079 NA
ATOM      4  C   UNL d   1      75.204  72.579  90.463  0.00  0.00     0.124 A 
ATOM      5  C   UNL d   1      76.500  72.921  90.048  0.00  0.00     0.180 A 
ATOM      6  C   UNL d   1      77.157  74.194  90.130  0.00  0.00     0.123 C 
ATOM      7  N   UNL d   1      77.633  75.249  90.237  0.00  0.00    -0.190 NA
ATOM      8  N   UNL d   1      77.139  71.882  89.496  0.00  0.00    -0.153 NA
ENDROOT
BRANCH   4   9
ATOM      9  S   UNL d   1      74.070  73.647  91.198  0.00  0.00     0.164 S 
ATOM     10  O   UNL d   1      72.801  72.865  91.395  0.00  0.00    -0.244 OA
BRANCH   9  11
ATOM     11  C   UNL d   1      74.928  73.811  92.796  0.00  0.00     0.477 C 
ATOM     12  F   UNL d   1      75.773  74.871  92.835  0.00  0.00    -0.158 F 
ATOM     13  F   UNL d   1      75.652  72.704  93.094  0.00  0.00    -0.158 F 
ATOM     14  F   UNL d   1      74.037  73.981  93.811  0.00  0.00    -0.158 F 
ENDBRANCH   9  11
ENDBRANCH   4   9
BRANCH   1  15
ATOM     15  C   UNL d   1      76.668  69.555  89.209  0.00  0.00     0.105 C 
ATOM     16  C   UNL d   1      76.594  69.159  87.887  0.00  0.00     0.076 C 
ATOM     17 CL   UNL d   1      75.774  70.026  86.647  0.00  0.00    -0.081 Cl
ATOM     18  C   UNL d   1      77.102  67.895  87.534  0.00  0.00     0.017 C 
ATOM     19  C   UNL d   1      77.805  66.909  88.290  0.00  0.00     0.073 C 
ATOM     20  C   UNL d   1      77.695  67.409  89.624  0.00  0.00     0.017 C 
ATOM     21  C   UNL d   1      77.213  68.652  90.107  0.00  0.00     0.076 C 
ATOM     22 CL   UNL d   1      77.533  68.984  91.766  0.00  0.00    -0.081 Cl
BRANCH  19  23
ATOM     23  C   UNL d   1      78.064  66.148  88.104  0.00  0.00     0.419 C 
ATOM     24  F   UNL d   1      78.323  65.387  87.919  0.00  0.00    -0.166 F 
ATOM     25  F   UNL d   1      76.714  65.622  87.815  0.00  0.00    -0.166 F 
ATOM     26  F   UNL d   1      78.414  66.545  86.734  0.00  0.00    -0.166 F 
ENDBRANCH  19  23
ENDBRANCH   1  15
TORSDOF 4
ENDMDL
MODEL 2
REMARK VINA RESULT:      -7.7      1.360      1.740
REMARK  4 active torsions:
REMARK  status: ('A' for Active; 'I' for Inactive)
REMARK    1  A    between atoms: C_4  and  C_5 
REMARK    2  A    between atoms: C_12  and  N_13 
REMARK    3  A    between atoms: C_16  and  S_17 
REMARK    4  A    between atoms: S_17  and  C_19 
ROOT
ATOM      1  N   UNL d   1      77.230  70.617  89.055  0.00  0.00    -0.214 N 
ATOM      2  C   UNL d   1      76.194  71.321  89.634  0.00  0.00     0.163 A 
ATOM      3  N   UNL d   1      74.936  70.794  90.046  0.00  0.00    -0.079 NA
ATOM      4  C   UNL d   1      76.595  72.635  89.683  0.00  0.00     0.124 A 
ATOM      5  C   UNL d   1      77.855  72.660  89.063  0.00  0.00     0.180 A 
ATOM      6  C   UNL d   1      78.706  73.787  88.818  0.00  0.00     0.123 C 
ATOM      7  N   UNL d   1      79.351  74.741  88.660  0.00  0.00    -0.190 NA
ATOM      8  N   UNL d   1      78.236  71.442  88.658  0.00  0.00    -0.153 NA
ENDROOT
BRANCH   4   9
ATOM      9  S   UNL d   1      75.761  74.002  90.317  0.00  0.00     0.164 S 
ATOM     10  O   UNL d   1      74.350  73.560  90.593  0.00  0.00    -0.244 OA
BRANCH   9  11
ATOM     11  C   UNL d   1      76.675  74.107  91.889  0.00  0.00     0.477 C 
ATOM     12  F   UNL d   1      77.124  72.902  92.319  0.00  0.00    -0.158 F 
ATOM     13  F   UNL d   1      75.911  74.632  92.879  0.00  0.00    -0.158 F 
ATOM     14  F   UNL d   1      77.764  74.912  91.765  0.00  0.00    -0.158 F 
ENDBRANCH   9  11
ENDBRANCH   4   9
BRANCH   1  15
ATOM     15  C   UNL d   1      77.371  69.225  88.891  0.00  0.00     0.105 C 
ATOM     16  C   UNL d   1      76.973  68.613  87.717  0.00  0.00     0.076 C 
ATOM     17 CL   UNL d   1      76.038  69.369  86.484  0.00  0.00    -0.081 Cl
ATOM     18  C   UNL d   1      77.222  67.237  87.558  0.00  0.00     0.017 C 
ATOM     19  C   UNL d   1      77.925  66.298  88.371  0.00  0.00     0.073 C 
ATOM     20  C   UNL d   1      78.162  67.045  89.566  0.00  0.00     0.017 C 
ATOM     21  C   UNL d   1      77.963  68.419  89.851  0.00  0.00     0.076 C 
ATOM     22 CL   UNL d   1      78.662  68.988  91.318  0.00  0.00    -0.081 Cl
BRANCH  19  23
ATOM     23  C   UNL d   1      78.035  65.483  88.309  0.00  0.00     0.419 C 
ATOM     24  F   UNL d   1      78.145  64.668  88.247  0.00  0.00    -0.166 F 
ATOM     25  F   UNL d   1      77.790  65.214  89.740  0.00  0.00    -0.166 F 
ATOM     26  F   UNL d   1      76.659  65.281  87.836  0.00  0.00    -0.166 F 
ENDBRANCH  19  23
ENDBRANCH   1  15
TORSDOF 4
ENDMDL
MODEL 3
REMARK VINA RESULT:      -7.6      1.450      2.515
REMARK  4 active torsions:
REMARK  status: ('A' for Active; 'I' for Inactive)
REMARK    1  A    between atoms: C_4  and  C_5 
REMARK    2  A    between atoms: C_12  and  N_13 
REMARK    3  A    between atoms: C_16  and  S_17 
REMARK    4  A    between atoms: S_17  and  C_19 
ROOT
ATOM      1  N   UNL d   1      77.451  70.570  88.996  0.00  0.00    -0.214 N 
ATOM      2  C   UNL d   1      76.375  71.202  89.584  0.00  0.00     0.163 A 
ATOM      3  N   UNL d   1      75.144  70.598  89.973  0.00  0.00    -0.079 NA
ATOM      4  C   UNL d   1      76.704  72.534  89.668  0.00  0.00     0.124 A 
ATOM      5  C   UNL d   1      77.964  72.642  89.059  0.00  0.00     0.180 A 
ATOM      6  C   UNL d   1      78.755  73.820  88.847  0.00  0.00     0.123 C 
ATOM      7  N   UNL d   1      79.348  74.811  88.718  0.00  0.00    -0.190 NA
ATOM      8  N   UNL d   1      78.413  71.457  88.627  0.00  0.00    -0.153 NA
ENDROOT
BRANCH   4   9
ATOM      9  S   UNL d   1      75.793  73.838  90.329  0.00  0.00     0.164 S 
ATOM     10  O   UNL d   1      74.405  73.316  90.577  0.00  0.00    -0.244 OA
BRANCH   9  11
ATOM     11  C   UNL d   1      76.685  73.948  91.913  0.00  0.00     0.477 C 
ATOM     12  F   UNL d   1      77.143  72.747  92.345  0.00  0.00    -0.158 F 
ATOM     13  F   UNL d   1      75.903  74.461  92.895  0.00  0.00    -0.158 F 
ATOM     14  F   UNL d   1      77.766  74.766  91.806  0.00  0.00    -0.158 F 
ENDBRANCH   9  11
ENDBRANCH   4   9
BRANCH   1  15
ATOM     15  C   UNL d   1      77.668  69.192  88.798  0.00  0.00     0.105 C 
ATOM     16  C   UNL d   1      78.340  68.444  89.747  0.00  0.00     0.076 C 
ATOM     17 CL   UNL d   1      79.208  69.103  91.081  0.00  0.00    -0.081 Cl
ATOM     18  C   UNL d   1      78.450  67.054  89.555  0.00  0.00     0.017 C 
ATOM     19  C   UNL d   1      77.900  66.186  88.566  0.00  0.00     0.073 C 
ATOM     20  C   UNL d   1      77.348  67.107  87.622  0.00  0.00     0.017 C 
ATOM     21  C   UNL d   1      77.175  68.512  87.696  0.00  0.00     0.076 C 
ATOM     22 CL   UNL d   1      76.189  69.210  86.469  0.00  0.00    -0.081 Cl
BRANCH  19  23
ATOM     23  C   UNL d   1      77.997  65.380  88.418  0.00  0.00     0.419 C 
ATOM     24  F   UNL d   1      78.094  64.574  88.271  0.00  0.00    -0.166 F 
ATOM     25  F   UNL d   1      77.710  64.963  89.806  0.00  0.00    -0.166 F 
ATOM     26  F   UNL d   1      76.630  65.258  87.894  0.00  0.00    -0.166 F 
ENDBRANCH  19  23
ENDBRANCH   1  15
TORSDOF 4
ENDMDL
MODEL 4
REMARK VINA RESULT:      -7.6      1.331      2.238
REMARK  4 active torsions:
REMARK  status: ('A' for Active; 'I' for Inactive)
REMARK    1  A    between atoms: C_4  and  C_5 
REMARK    2  A    between atoms: C_12  and  N_13 
REMARK    3  A    between atoms: C_16  and  S_17 
REMARK    4  A    between atoms: S_17  and  C_19 
ROOT
ATOM      1  N   UNL d   1      76.274  70.886  89.761  0.00  0.00    -0.214 N 
ATOM      2  C   UNL d   1      76.933  72.097  89.807  0.00  0.00     0.163 A 
ATOM      3  N   UNL d   1      78.301  72.331  89.483  0.00  0.00    -0.079 NA
ATOM      4  C   UNL d   1      76.026  73.017  90.276  0.00  0.00     0.124 A 
ATOM      5  C   UNL d   1      74.862  72.281  90.550  0.00  0.00     0.180 A 
ATOM      6  C   UNL d   1      73.618  72.747  91.091  0.00  0.00     0.123 C 
ATOM      7  N   UNL d   1      72.635  73.193  91.522  0.00  0.00    -0.190 NA
ATOM      8  N   UNL d   1      75.013  70.982  90.262  0.00  0.00    -0.153 NA
ENDROOT
BRANCH   4   9
ATOM      9  S   UNL d   1      76.228  74.708  90.533  0.00  0.00     0.164 S 
ATOM     10  O   UNL d   1      74.918  75.359  90.184  0.00  0.00    -0.244 OA
BRANCH   9  11
ATOM     11  C   UNL d   1      76.398  74.636  92.344  0.00  0.00     0.477 C 
ATOM     12  F   UNL d   1      76.780  73.414  92.791  0.00  0.00    -0.158 F 
ATOM     13  F   UNL d   1      75.238  74.952  92.971  0.00  0.00    -0.158 F 
ATOM     14  F   UNL d   1      77.332  75.524  92.780  0.00  0.00    -0.158 F 
ENDBRANCH   9  11
ENDBRANCH   4   9
BRANCH   1  15
ATOM     15  C   UNL d   1      76.718  69.655  89.238  0.00  0.00     0.105 C 
ATOM     16  C   UNL d   1      76.690  69.420  87.877  0.00  0.00     0.076 C 
ATOM     17 CL   UNL d   1      75.888  70.419  86.725  0.00  0.00    -0.081 Cl
ATOM     18  C   UNL d   1      77.233  68.217  87.389  0.00  0.00     0.017 C 
ATOM     19  C   UNL d   1      77.932  67.158  88.042  0.00  0.00     0.073 C 
ATOM     20  C   UNL d   1      77.774  67.491  89.423  0.00  0.00     0.017 C 
ATOM     21  C   UNL d   1      77.255  68.658  90.037  0.00  0.00     0.076 C 
ATOM     22 CL   UNL d   1      77.521  68.792  91.733  0.00  0.00    -0.081 Cl
BRANCH  19  23
ATOM     23  C   UNL d   1      78.212  66.429  87.774  0.00  0.00     0.419 C 
ATOM     24  F   UNL d   1      78.491  65.701  87.507  0.00  0.00    -0.166 F 
ATOM     25  F   UNL d   1      76.885  65.779  87.773  0.00  0.00    -0.166 F 
ATOM     26  F   UNL d   1      78.206  66.882  86.377  0.00  0.00    -0.166 F 
ENDBRANCH  19  23
ENDBRANCH   1  15
TORSDOF 4
ENDMDL
MODEL 5
REMARK VINA RESULT:      -7.3     21.307     22.987
REMARK  4 active torsions:
REMARK  status: ('A' for Active; 'I' for Inactive)
REMARK    1  A    between atoms: C_4  and  C_5 
REMARK    2  A    between atoms: C_12  and  N_13 
REMARK    3  A    between atoms: C_16  and  S_17 
REMARK    4  A    between atoms: S_17  and  C_19 
ROOT
ATOM      1  N   UNL d   1      56.790  72.295  79.208  0.00  0.00    -0.214 N 
ATOM      2  C   UNL d   1      56.875  71.251  78.309  0.00  0.00     0.163 A 
ATOM      3  N   UNL d   1      57.321  69.926  78.587  0.00  0.00    -0.079 NA
ATOM      4  C   UNL d   1      56.497  71.756  77.088  0.00  0.00     0.124 A 
ATOM      5  C   UNL d   1      56.257  73.122  77.311  0.00  0.00     0.180 A 
ATOM      6  C   UNL d   1      55.868  74.126  76.365  0.00  0.00     0.123 C 
ATOM      7  N   UNL d   1      55.543  74.886  75.548  0.00  0.00    -0.190 NA
ATOM      8  N   UNL d   1      56.456  73.461  78.591  0.00  0.00    -0.153 NA
ENDROOT
BRANCH   4   9
ATOM      9  S   UNL d   1      56.367  70.949  75.573  0.00  0.00     0.164 S 
ATOM     10  O   UNL d   1      55.196  71.560  74.855  0.00  0.00    -0.244 OA
BRANCH   9  11
ATOM     11  C   UNL d   1      57.912  71.587  74.850  0.00  0.00     0.477 C 
ATOM     12  F   UNL d   1      58.839  71.909  75.787  0.00  0.00    -0.158 F 
ATOM     13  F   UNL d   1      57.696  72.695  74.099  0.00  0.00    -0.158 F 
ATOM     14  F   UNL d   1      58.484  70.664  74.031  0.00  0.00    -0.158 F 
ENDBRANCH   9  11
ENDBRANCH   4   9
BRANCH   1  15
ATOM     15  C   UNL d   1      56.949  72.274  80.607  0.00  0.00     0.105 C 
ATOM     16  C   UNL d   1      58.204  72.399  81.173  0.00  0.00     0.076 C 
ATOM     17 CL   UNL d   1      59.687  72.310  80.302  0.00  0.00    -0.081 Cl
ATOM     18  C   UNL d   1      58.307  72.470  82.575  0.00  0.00     0.017 C 
ATOM     19  C   UNL d   1      57.314  72.534  83.598  0.00  0.00     0.073 C 
ATOM     20  C   UNL d   1      56.109  72.281  82.872  0.00  0.00     0.017 C 
ATOM     21  C   UNL d   1      55.873  72.192  81.477  0.00  0.00     0.076 C 
ATOM     22 CL   UNL d   1      54.219  72.176  80.997  0.00  0.00    -0.081 Cl
BRANCH  19  23
ATOM     23  C   UNL d   1      57.364  72.528  84.421  0.00  0.00     0.419 C 
ATOM     24  F   UNL d   1      57.414  72.523  85.245  0.00  0.00    -0.166 F 
ATOM     25  F   UNL d   1      58.706  73.144  84.470  0.00  0.00    -0.166 F 
ATOM     26  F   UNL d   1      56.580  73.766  84.530  0.00  0.00    -0.166 F 
ENDBRANCH  19  23
ENDBRANCH   1  15
TORSDOF 4
ENDMDL
MODEL 6
REMARK VINA RESULT:      -7.2     11.411     13.208
REMARK  4 active torsions:
REMARK  status: ('A' for Active; 'I' for Inactive)
REMARK    1  A    between atoms: C_4  and  C_5 
REMARK    2  A    between atoms: C_12  and  N_13 
REMARK    3  A    between atoms: C_16  and  S_17 
REMARK    4  A    between atoms: S_17  and  C_19 
ROOT
ATOM      1  N   UNL d   1      80.969  79.395  96.133  0.00  0.00    -0.214 N 
ATOM      2  C   UNL d   1      80.160  79.714  97.204  0.00  0.00     0.163 A 
ATOM      3  N   UNL d   1      80.590  80.068  98.516  0.00  0.00    -0.079 NA
ATOM      4  C   UNL d   1      78.864  79.570  96.771  0.00  0.00     0.124 A 
ATOM      5  C   UNL d   1      78.966  79.104  95.450  0.00  0.00     0.180 A 
ATOM      6  C   UNL d   1      77.912  78.758  94.542  0.00  0.00     0.123 C 
ATOM      7  N   UNL d   1      77.009  78.504  93.854  0.00  0.00    -0.190 NA
ATOM      8  N   UNL d   1      80.241  78.973  95.064  0.00  0.00    -0.153 NA
ENDROOT
BRANCH   4   9
ATOM      9  S   UNL d   1      77.396  79.846  97.627  0.00  0.00     0.164 S 
ATOM     10  O   UNL d   1      77.637  79.423  99.049  0.00  0.00    -0.244 OA
BRANCH   9  11
ATOM     11  C   UNL d   1      77.423  81.664  97.529  0.00  0.00     0.477 C 
ATOM     12  F   UNL d   1      76.229  82.227  97.839  0.00  0.00    -0.158 F 
ATOM     13  F   UNL d   1      77.764  82.096  96.289  0.00  0.00    -0.158 F 
ATOM     14  F   UNL d   1      78.339  82.184  98.390  0.00  0.00    -0.158 F 
ENDBRANCH   9  11
ENDBRANCH   4   9
BRANCH   1  15
ATOM     15  C   UNL d   1      82.369  79.502  96.017  0.00  0.00     0.105 C 
ATOM     16  C   UNL d   1      83.164  78.372  96.040  0.00  0.00     0.076 C 
ATOM     17 CL   UNL d   1      82.620  76.798  96.479  0.00  0.00    -0.081 Cl
ATOM     18  C   UNL d   1      84.547  78.517  95.824  0.00  0.00     0.017 C 
ATOM     19  C   UNL d   1      85.340  79.652  95.475  0.00  0.00     0.073 C 
ATOM     20  C   UNL d   1      84.409  80.729  95.605  0.00  0.00     0.017 C 
ATOM     21  C   UNL d   1      83.007  80.716  95.815  0.00  0.00     0.076 C 
ATOM     22 CL   UNL d   1      82.206  82.226  95.608  0.00  0.00    -0.081 Cl
BRANCH  19  23
ATOM     23  C   UNL d   1      86.154  79.756  95.393  0.00  0.00     0.419 C 
ATOM     24  F   UNL d   1      86.968  79.860  95.311  0.00  0.00    -0.166 F 
ATOM     25  F   UNL d   1      86.048  81.080  94.747  0.00  0.00    -0.166 F 
ATOM     26  F   UNL d   1      86.286  80.227  96.778  0.00  0.00    -0.166 F 
ENDBRANCH  19  23
ENDBRANCH   1  15
TORSDOF 4
ENDMDL
MODEL 7
REMARK VINA RESULT:      -7.1     21.714     23.352
REMARK  4 active torsions:
REMARK  status: ('A' for Active; 'I' for Inactive)
REMARK    1  A    between atoms: C_4  and  C_5 
REMARK    2  A    between atoms: C_12  and  N_13 
REMARK    3  A    between atoms: C_16  and  S_17 
REMARK    4  A    between atoms: S_17  and  C_19 
ROOT
ATOM      1  N   UNL d   1      56.672  72.163  79.294  0.00  0.00    -0.214 N 
ATOM      2  C   UNL d   1      56.479  71.072  78.472  0.00  0.00     0.163 A 
ATOM      3  N   UNL d   1      56.606  69.700  78.839  0.00  0.00    -0.079 NA
ATOM      4  C   UNL d   1      56.196  71.570  77.223  0.00  0.00     0.124 A 
ATOM      5  C   UNL d   1      56.294  72.965  77.351  0.00  0.00     0.180 A 
ATOM      6  C   UNL d   1      56.126  73.967  76.340  0.00  0.00     0.123 C 
ATOM      7  N   UNL d   1      55.967  74.728  75.475  0.00  0.00    -0.190 NA
ATOM      8  N   UNL d   1      56.606  73.331  78.600  0.00  0.00    -0.153 NA
ENDROOT
BRANCH   4   9
ATOM      9  S   UNL d   1      55.832  70.718  75.771  0.00  0.00     0.164 S 
ATOM     10  O   UNL d   1      56.741  69.521  75.731  0.00  0.00    -0.244 OA
BRANCH   9  11
ATOM     11  C   UNL d   1      54.157  70.184  76.244  0.00  0.00     0.477 C 
ATOM     12  F   UNL d   1      54.149  69.011  76.925  0.00  0.00    -0.158 F 
ATOM     13  F   UNL d   1      53.354  70.029  75.161  0.00  0.00    -0.158 F 
ATOM     14  F   UNL d   1      53.559  71.108  77.044  0.00  0.00    -0.158 F 
ENDBRANCH   9  11
ENDBRANCH   4   9
BRANCH   1  15
ATOM     15  C   UNL d   1      56.864  72.198  80.690  0.00  0.00     0.105 C 
ATOM     16  C   UNL d   1      58.132  72.334  81.221  0.00  0.00     0.076 C 
ATOM     17 CL   UNL d   1      59.593  72.194  80.320  0.00  0.00    -0.081 Cl
ATOM     18  C   UNL d   1      58.268  72.461  82.616  0.00  0.00     0.017 C 
ATOM     19  C   UNL d   1      57.300  72.577  83.658  0.00  0.00     0.073 C 
ATOM     20  C   UNL d   1      56.076  72.306  82.971  0.00  0.00     0.017 C 
ATOM     21  C   UNL d   1      55.807  72.162  81.586  0.00  0.00     0.076 C 
ATOM     22 CL   UNL d   1      54.143  72.143  81.146  0.00  0.00    -0.081 Cl
BRANCH  19  23
ATOM     23  C   UNL d   1      57.369  72.604  84.479  0.00  0.00     0.419 C 
ATOM     24  F   UNL d   1      57.438  72.632  85.301  0.00  0.00    -0.166 F 
ATOM     25  F   UNL d   1      58.689  73.267  84.472  0.00  0.00    -0.166 F 
ATOM     26  F   UNL d   1      56.545  73.817  84.560  0.00  0.00    -0.166 F 
ENDBRANCH  19  23
ENDBRANCH   1  15
TORSDOF 4
ENDMDL
MODEL 8
REMARK VINA RESULT:      -7.1      3.435      4.556
REMARK  4 active torsions:
REMARK  status: ('A' for Active; 'I' for Inactive)
REMARK    1  A    between atoms: C_4  and  C_5 
REMARK    2  A    between atoms: C_12  and  N_13 
REMARK    3  A    between atoms: C_16  and  S_17 
REMARK    4  A    between atoms: S_17  and  C_19 
ROOT
ATOM      1  N   UNL d   1      77.893  68.174  89.566  0.00  0.00    -0.214 N 
ATOM      2  C   UNL d   1      76.914  68.782  90.325  0.00  0.00     0.163 A 
ATOM      3  N   UNL d   1      76.774  68.714  91.742  0.00  0.00    -0.079 NA
ATOM      4  C   UNL d   1      76.073  69.415  89.442  0.00  0.00     0.124 A 
ATOM      5  C   UNL d   1      76.570  69.098  88.167  0.00  0.00     0.180 A 
ATOM      6  C   UNL d   1      76.047  69.476  86.886  0.00  0.00     0.123 C 
ATOM      7  N   UNL d   1      75.577  69.827  85.882  0.00  0.00    -0.190 NA
ATOM      8  N   UNL d   1      77.661  68.326  88.235  0.00  0.00    -0.153 NA
ENDROOT
BRANCH   4   9
ATOM      9  S   UNL d   1      74.677  70.369  89.765  0.00  0.00     0.164 S 
ATOM     10  O   UNL d   1      74.221  70.014  91.154  0.00  0.00    -0.244 OA
BRANCH   9  11
ATOM     11  C   UNL d   1      75.518  71.984  89.805  0.00  0.00     0.477 C 
ATOM     12  F   UNL d   1      75.991  72.363  88.591  0.00  0.00    -0.158 F 
ATOM     13  F   UNL d   1      76.566  71.983  90.665  0.00  0.00    -0.158 F 
ATOM     14  F   UNL d   1      74.671  72.964  90.221  0.00  0.00    -0.158 F 
ENDBRANCH   9  11
ENDBRANCH   4   9
BRANCH   1  15
ATOM     15  C   UNL d   1      79.057  67.506  89.994  0.00  0.00     0.105 C 
ATOM     16  C   UNL d   1      80.099  68.209  90.568  0.00  0.00     0.076 C 
ATOM     17 CL   UNL d   1      80.239  69.925  90.575  0.00  0.00    -0.081 Cl
ATOM     18  C   UNL d   1      81.201  67.491  91.069  0.00  0.00     0.017 C 
ATOM     19  C   UNL d   1      81.443  66.090  91.197  0.00  0.00     0.073 C 
ATOM     20  C   UNL d   1      80.352  65.523  90.468  0.00  0.00     0.017 C 
ATOM     21  C   UNL d   1      79.193  66.128  89.922  0.00  0.00     0.076 C 
ATOM     22 CL   UNL d   1      77.967  65.046  89.381  0.00  0.00    -0.081 Cl
BRANCH  19  23
ATOM     23  C   UNL d   1      82.102  65.661  91.444  0.00  0.00     0.419 C 
ATOM     24  F   UNL d   1      82.762  65.232  91.692  0.00  0.00    -0.166 F 
ATOM     25  F   UNL d   1      81.333  64.724  92.288  0.00  0.00    -0.166 F 
ATOM     26  F   UNL d   1      82.105  64.856  90.215  0.00  0.00    -0.166 F 
ENDBRANCH  19  23
ENDBRANCH   1  15
TORSDOF 4
ENDMDL
MODEL 9
REMARK VINA RESULT:      -7.0     21.529     23.399
REMARK  4 active torsions:
REMARK  status: ('A' for Active; 'I' for Inactive)
REMARK    1  A    between atoms: C_4  and  C_5 
REMARK    2  A    between atoms: C_12  and  N_13 
REMARK    3  A    between atoms: C_16  and  S_17 
REMARK    4  A    between atoms: S_17  and  C_19 
ROOT
ATOM      1  N   UNL d   1      62.922  88.529  92.364  0.00  0.00    -0.214 N 
ATOM      2  C   UNL d   1      63.267  89.744  92.920  0.00  0.00     0.163 A 
ATOM      3  N   UNL d   1      62.437  90.898  93.018  0.00  0.00    -0.079 NA
ATOM      4  C   UNL d   1      64.581  89.636  93.309  0.00  0.00     0.124 A 
ATOM      5  C   UNL d   1      64.981  88.353  92.903  0.00  0.00     0.180 A 
ATOM      6  C   UNL d   1      66.270  87.737  93.034  0.00  0.00     0.123 C 
ATOM      7  N   UNL d   1      67.335  87.294  93.182  0.00  0.00    -0.190 NA
ATOM      8  N   UNL d   1      63.986  87.684  92.307  0.00  0.00    -0.153 NA
ENDROOT
BRANCH   4   9
ATOM      9  S   UNL d   1      65.581  90.799  94.090  0.00  0.00     0.164 S 
ATOM     10  O   UNL d   1      65.260  92.132  93.473  0.00  0.00    -0.244 OA
BRANCH   9  11
ATOM     11  C   UNL d   1      64.799  90.695  95.732  0.00  0.00     0.477 C 
ATOM     12  F   UNL d   1      64.384  89.441  96.040  0.00  0.00    -0.158 F 
ATOM     13  F   UNL d   1      63.721  91.512  95.828  0.00  0.00    -0.158 F 
ATOM     14  F   UNL d   1      65.666  91.074  96.709  0.00  0.00    -0.158 F 
ENDBRANCH   9  11
ENDBRANCH   4   9
BRANCH   1  15
ATOM     15  C   UNL d   1      61.659  88.082  91.928  0.00  0.00     0.105 C 
ATOM     16  C   UNL d   1      61.390  87.948  90.579  0.00  0.00     0.076 C 
ATOM     17 CL   UNL d   1      62.391  88.550  89.314  0.00  0.00    -0.081 Cl
ATOM     18  C   UNL d   1      60.150  87.407  90.190  0.00  0.00     0.017 C 
ATOM     19  C   UNL d   1      59.079  86.846  90.949  0.00  0.00     0.073 C 
ATOM     20  C   UNL d   1      59.456  87.161  92.291  0.00  0.00     0.017 C 
ATOM     21  C   UNL d   1      60.661  87.698  92.809  0.00  0.00     0.076 C 
ATOM     22 CL   UNL d   1      60.829  87.642  94.522  0.00  0.00    -0.081 Cl
BRANCH  19  23
ATOM     23  C   UNL d   1      58.332  86.571  90.734  0.00  0.00     0.419 C 
ATOM     24  F   UNL d   1      57.584  86.295  90.519  0.00  0.00    -0.166 F 
ATOM     25  F   UNL d   1      57.757  87.915  90.525  0.00  0.00    -0.166 F 
ATOM     26  F   UNL d   1      58.762  86.327  89.351  0.00  0.00    -0.166 F 
ENDBRANCH  19  23
ENDBRANCH   1  15
TORSDOF 4
ENDMDL
MODEL 10
REMARK VINA RESULT:      -6.8     21.372     23.484
REMARK  4 active torsions:
REMARK  status: ('A' for Active; 'I' for Inactive)
REMARK    1  A    between atoms: C_4  and  C_5 
REMARK    2  A    between atoms: C_12  and  N_13 
REMARK    3  A    between atoms: C_16  and  S_17 
REMARK    4  A    between atoms: S_17  and  C_19 
ROOT
ATOM      1  N   UNL d   1      62.247  88.664  92.287  0.00  0.00    -0.214 N 
ATOM      2  C   UNL d   1      62.265  87.800  91.212  0.00  0.00     0.163 A 
ATOM      3  N   UNL d   1      63.403  87.433  90.437  0.00  0.00    -0.079 NA
ATOM      4  C   UNL d   1      60.964  87.409  91.003  0.00  0.00     0.124 A 
ATOM      5  C   UNL d   1      60.208  88.121  91.949  0.00  0.00     0.180 A 
ATOM      6  C   UNL d   1      58.789  88.111  92.148  0.00  0.00     0.123 C 
ATOM      7  N   UNL d   1      57.633  88.048  92.261  0.00  0.00    -0.190 NA
ATOM      8  N   UNL d   1      60.979  88.903  92.717  0.00  0.00    -0.153 NA
ENDROOT
BRANCH   4   9
ATOM      9  S   UNL d   1      60.331  86.319  89.830  0.00  0.00     0.164 S 
ATOM     10  O   UNL d   1      61.186  86.462  88.600  0.00  0.00    -0.244 OA
BRANCH   9  11
ATOM     11  C   UNL d   1      60.778  84.781  90.695  0.00  0.00     0.477 C 
ATOM     12  F   UNL d   1      60.100  83.700  90.235  0.00  0.00    -0.158 F 
ATOM     13  F   UNL d   1      60.544  84.868  92.028  0.00  0.00    -0.158 F 
ATOM     14  F   UNL d   1      62.102  84.507  90.548  0.00  0.00    -0.158 F 
ENDBRANCH   9  11
ENDBRANCH   4   9
BRANCH   1  15
ATOM     15  C   UNL d   1      63.331  89.243  92.976  0.00  0.00     0.105 C 
ATOM     16  C   UNL d   1      63.781  88.697  94.163  0.00  0.00     0.076 C 
ATOM     17 CL   UNL d   1      62.951  87.486  95.063  0.00  0.00    -0.081 Cl
ATOM     18  C   UNL d   1      64.927  89.249  94.766  0.00  0.00     0.017 C 
ATOM     19  C   UNL d   1      65.832  90.264  94.334  0.00  0.00     0.073 C 
ATOM     20  C   UNL d   1      65.174  90.791  93.180  0.00  0.00     0.017 C 
ATOM     21  C   UNL d   1      64.031  90.331  92.479  0.00  0.00     0.076 C 
ATOM     22 CL   UNL d   1      63.739  91.077  90.954  0.00  0.00    -0.081 Cl
BRANCH  19  23
ATOM     23  C   UNL d   1      66.476  90.625  94.701  0.00  0.00     0.419 C 
ATOM     24  F   UNL d   1      67.121  90.987  95.068  0.00  0.00    -0.166 F 
ATOM     25  F   UNL d   1      66.405  91.859  93.892  0.00  0.00    -0.166 F 
ATOM     26  F   UNL d   1      65.647  91.083  95.824  0.00  0.00    -0.166 F 
ENDBRANCH  19  23
ENDBRANCH   1  15
TORSDOF 4
ENDMDL
MODEL 11
REMARK VINA RESULT:      -6.8      5.006      7.151
REMARK  4 active torsions:
REMARK  status: ('A' for Active; 'I' for Inactive)
REMARK    1  A    between atoms: C_4  and  C_5 
REMARK    2  A    between atoms: C_12  and  N_13 
REMARK    3  A    between atoms: C_16  and  S_17 
REMARK    4  A    between atoms: S_17  and  C_19 
ROOT
ATOM      1  N   UNL d   1      78.563  67.515  90.656  0.00  0.00    -0.214 N 
ATOM      2  C   UNL d   1      79.777  68.032  91.061  0.00  0.00     0.163 A 
ATOM      3  N   UNL d   1      80.538  69.034  90.391  0.00  0.00    -0.079 NA
ATOM      4  C   UNL d   1      80.129  67.353  92.202  0.00  0.00     0.124 A 
ATOM      5  C   UNL d   1      79.114  66.402  92.394  0.00  0.00     0.180 A 
ATOM      6  C   UNL d   1      79.005  65.409  93.422  0.00  0.00     0.123 C 
ATOM      7  N   UNL d   1      78.973  64.635  94.290  0.00  0.00    -0.190 NA
ATOM      8  N   UNL d   1      78.172  66.479  91.445  0.00  0.00    -0.153 NA
ENDROOT
BRANCH   4   9
ATOM      9  S   UNL d   1      81.519  67.553  93.200  0.00  0.00     0.164 S 
ATOM     10  O   UNL d   1      81.095  67.223  94.604  0.00  0.00    -0.244 OA
BRANCH   9  11
ATOM     11  C   UNL d   1      82.478  66.161  92.521  0.00  0.00     0.477 C 
ATOM     12  F   UNL d   1      83.815  66.305  92.699  0.00  0.00    -0.158 F 
ATOM     13  F   UNL d   1      82.262  66.003  91.191  0.00  0.00    -0.158 F 
ATOM     14  F   UNL d   1      82.125  64.991  93.116  0.00  0.00    -0.158 F 
ENDBRANCH   9  11
ENDBRANCH   4   9
BRANCH   1  15
ATOM     15  C   UNL d   1      77.718  67.950  89.617  0.00  0.00     0.105 C 
ATOM     16  C   UNL d   1      76.907  69.056  89.788  0.00  0.00     0.076 C 
ATOM     17 CL   UNL d   1      76.615  69.835  91.296  0.00  0.00    -0.081 Cl
ATOM     18  C   UNL d   1      76.151  69.514  88.693  0.00  0.00     0.017 C 
ATOM     19  C   UNL d   1      76.112  69.101  87.327  0.00  0.00     0.073 C 
ATOM     20  C   UNL d   1      76.897  67.906  87.346  0.00  0.00     0.017 C 
ATOM     21  C   UNL d   1      77.700  67.345  88.370  0.00  0.00     0.076 C 
ATOM     22 CL   UNL d   1      78.729  66.051  87.890  0.00  0.00    -0.081 Cl
BRANCH  19  23
ATOM     23  C   UNL d   1      75.640  69.330  86.691  0.00  0.00     0.419 C 
ATOM     24  F   UNL d   1      75.168  69.560  86.055  0.00  0.00    -0.166 F 
ATOM     25  F   UNL d   1      75.994  70.762  86.782  0.00  0.00    -0.166 F 
ATOM     26  F   UNL d   1      76.669  68.939  85.718  0.00  0.00    -0.166 F 
ENDBRANCH  19  23
ENDBRANCH   1  15
TORSDOF 4
ENDMDL
MODEL 12
REMARK VINA RESULT:      -6.8     21.456     23.970
REMARK  4 active torsions:
REMARK  status: ('A' for Active; 'I' for Inactive)
REMARK    1  A    between atoms: C_4  and  C_5 
REMARK    2  A    between atoms: C_12  and  N_13 
REMARK    3  A    between atoms: C_16  and  S_17 
REMARK    4  A    between atoms: S_17  and  C_19 
ROOT
ATOM      1  N   UNL d   1      62.671  88.629  92.938  0.00  0.00    -0.214 N 
ATOM      2  C   UNL d   1      63.285  89.842  93.168  0.00  0.00     0.163 A 
ATOM      3  N   UNL d   1      62.738  91.133  92.909  0.00  0.00    -0.079 NA
ATOM      4  C   UNL d   1      64.543  89.559  93.643  0.00  0.00     0.124 A 
ATOM      5  C   UNL d   1      64.641  88.158  93.617  0.00  0.00     0.180 A 
ATOM      6  C   UNL d   1      65.758  87.335  93.978  0.00  0.00     0.123 C 
ATOM      7  N   UNL d   1      66.696  86.727  94.296  0.00  0.00    -0.190 NA
ATOM      8  N   UNL d   1      63.516  87.588  93.167  0.00  0.00    -0.153 NA
ENDROOT
BRANCH   4   9
ATOM      9  S   UNL d   1      65.787  90.642  94.139  0.00  0.00     0.164 S 
ATOM     10  O   UNL d   1      65.400  92.006  93.637  0.00  0.00    -0.244 OA
BRANCH   9  11
ATOM     11  C   UNL d   1      65.459  90.547  95.928  0.00  0.00     0.477 C 
ATOM     12  F   UNL d   1      66.015  89.455  96.510  0.00  0.00    -0.158 F 
ATOM     13  F   UNL d   1      64.130  90.515  96.195  0.00  0.00    -0.158 F 
ATOM     14  F   UNL d   1      65.961  91.635  96.573  0.00  0.00    -0.158 F 
ENDBRANCH   9  11
ENDBRANCH   4   9
BRANCH   1  15
ATOM     15  C   UNL d   1      61.337  88.367  92.569  0.00  0.00     0.105 C 
ATOM     16  C   UNL d   1      60.317  88.482  93.494  0.00  0.00     0.076 C 
ATOM     17 CL   UNL d   1      60.547  88.661  95.192  0.00  0.00    -0.081 Cl
ATOM     18  C   UNL d   1      58.990  88.306  93.059  0.00  0.00     0.017 C 
ATOM     19  C   UNL d   1      58.435  88.111  91.759  0.00  0.00     0.073 C 
ATOM     20  C   UNL d   1      59.599  87.904  90.956  0.00  0.00     0.017 C 
ATOM     21  C   UNL d   1      60.974  88.051  91.269  0.00  0.00     0.076 C 
ATOM     22 CL   UNL d   1      62.055  87.999  89.930  0.00  0.00    -0.081 Cl
BRANCH  19  23
ATOM     23  C   UNL d   1      57.666  87.961  91.501  0.00  0.00     0.419 C 
ATOM     24  F   UNL d   1      56.897  87.811  91.242  0.00  0.00    -0.166 F 
ATOM     25  F   UNL d   1      57.418  89.340  91.034  0.00  0.00    -0.166 F 
ATOM     26  F   UNL d   1      58.146  87.409  90.227  0.00  0.00    -0.166 F 
ENDBRANCH  19  23
ENDBRANCH   1  15
TORSDOF 4
ENDMDL
MODEL 13
REMARK VINA RESULT:      -6.7     21.270     22.972
REMARK  4 active torsions:
REMARK  status: ('A' for Active; 'I' for Inactive)
REMARK    1  A    between atoms: C_4  and  C_5 
REMARK    2  A    between atoms: C_12  and  N_13 
REMARK    3  A    between atoms: C_16  and  S_17 
REMARK    4  A    between atoms: S_17  and  C_19 
ROOT
ATOM      1  N   UNL d   1      56.911  71.921  78.834  0.00  0.00    -0.214 N 
ATOM      2  C   UNL d   1      56.765  70.723  78.164  0.00  0.00     0.163 A 
ATOM      3  N   UNL d   1      56.771  69.421  78.743  0.00  0.00    -0.079 NA
ATOM      4  C   UNL d   1      56.667  71.033  76.829  0.00  0.00     0.124 A 
ATOM      5  C   UNL d   1      56.823  72.427  76.760  0.00  0.00     0.180 A 
ATOM      6  C   UNL d   1      56.837  73.267  75.599  0.00  0.00     0.123 C 
ATOM      7  N   UNL d   1      56.828  73.890  74.617  0.00  0.00    -0.190 NA
ATOM      8  N   UNL d   1      56.995  72.970  77.972  0.00  0.00    -0.153 NA
ENDROOT
BRANCH   4   9
ATOM      9  S   UNL d   1      56.443  69.981  75.484  0.00  0.00     0.164 S 
ATOM     10  O   UNL d   1      55.929  70.827  74.352  0.00  0.00    -0.244 OA
BRANCH   9  11
ATOM     11  C   UNL d   1      58.203  69.607  75.202  0.00  0.00     0.477 C 
ATOM     12  F   UNL d   1      58.996  70.704  75.283  0.00  0.00    -0.158 F 
ATOM     13  F   UNL d   1      58.409  69.048  73.983  0.00  0.00    -0.158 F 
ATOM     14  F   UNL d   1      58.665  68.718  76.123  0.00  0.00    -0.158 F 
ENDBRANCH   9  11
ENDBRANCH   4   9
BRANCH   1  15
ATOM     15  C   UNL d   1      56.928  72.163  80.222  0.00  0.00     0.105 C 
ATOM     16  C   UNL d   1      55.753  72.158  80.949  0.00  0.00     0.076 C 
ATOM     17 CL   UNL d   1      54.174  72.149  80.263  0.00  0.00    -0.081 Cl
ATOM     18  C   UNL d   1      55.826  72.308  82.347  0.00  0.00     0.017 C 
ATOM     19  C   UNL d   1      56.938  72.379  83.238  0.00  0.00     0.073 C 
ATOM     20  C   UNL d   1      58.045  72.486  82.339  0.00  0.00     0.017 C 
ATOM     21  C   UNL d   1      58.105  72.351  80.929  0.00  0.00     0.076 C 
ATOM     22 CL   UNL d   1      59.686  72.251  80.254  0.00  0.00    -0.081 Cl
BRANCH  19  23
ATOM     23  C   UNL d   1      56.991  72.513  84.050  0.00  0.00     0.419 C 
ATOM     24  F   UNL d   1      57.045  72.648  84.862  0.00  0.00    -0.166 F 
ATOM     25  F   UNL d   1      56.414  71.209  84.432  0.00  0.00    -0.166 F 
ATOM     26  F   UNL d   1      58.405  72.114  84.077  0.00  0.00    -0.166 F 
ENDBRANCH  19  23
ENDBRANCH   1  15
TORSDOF 4
ENDMDL
MODEL 14
REMARK VINA RESULT:      -6.6      2.452      3.080
REMARK  4 active torsions:
REMARK  status: ('A' for Active; 'I' for Inactive)
REMARK    1  A    between atoms: C_4  and  C_5 
REMARK    2  A    between atoms: C_12  and  N_13 
REMARK    3  A    between atoms: C_16  and  S_17 
REMARK    4  A    between atoms: S_17  and  C_19 
ROOT
ATOM      1  N   UNL d   1      77.052  69.960  90.522  0.00  0.00    -0.214 N 
ATOM      2  C   UNL d   1      77.940  70.925  90.951  0.00  0.00     0.163 A 
ATOM      3  N   UNL d   1      79.349  70.775  91.100  0.00  0.00    -0.079 NA
ATOM      4  C   UNL d   1      77.191  72.036  91.257  0.00  0.00     0.124 A 
ATOM      5  C   UNL d   1      75.857  71.651  91.046  0.00  0.00     0.180 A 
ATOM      6  C   UNL d   1      74.664  72.421  91.247  0.00  0.00     0.123 C 
ATOM      7  N   UNL d   1      73.739  73.104  91.421  0.00  0.00    -0.190 NA
ATOM      8  N   UNL d   1      75.764  70.385  90.622  0.00  0.00    -0.153 NA
ENDROOT
BRANCH   4   9
ATOM      9  S   UNL d   1      77.714  73.577  91.819  0.00  0.00     0.164 S 
ATOM     10  O   UNL d   1      79.174  73.445  92.153  0.00  0.00    -0.244 OA
BRANCH   9  11
ATOM     11  C   UNL d   1      77.539  74.459  90.235  0.00  0.00     0.477 C 
ATOM     12  F   UNL d   1      76.322  75.039  90.086  0.00  0.00    -0.158 F 
ATOM     13  F   UNL d   1      77.727  73.633  89.177  0.00  0.00    -0.158 F 
ATOM     14  F   UNL d   1      78.464  75.451  90.126  0.00  0.00    -0.158 F 
ENDBRANCH   9  11
ENDBRANCH   4   9
BRANCH   1  15
ATOM     15  C   UNL d   1      77.321  68.689  89.976  0.00  0.00     0.105 C 
ATOM     16  C   UNL d   1      77.234  68.477  88.613  0.00  0.00     0.076 C 
ATOM     17 CL   UNL d   1      76.545  69.586  87.490  0.00  0.00    -0.081 Cl
ATOM     18  C   UNL d   1      77.605  67.220  88.102  0.00  0.00     0.017 C 
ATOM     19  C   UNL d   1      78.174  66.071  88.729  0.00  0.00     0.073 C 
ATOM     20  C   UNL d   1      78.090  66.404  90.116  0.00  0.00     0.017 C 
ATOM     21  C   UNL d   1      77.740  67.621  90.753  0.00  0.00     0.076 C 
ATOM     22 CL   UNL d   1      78.057  67.698  92.444  0.00  0.00    -0.081 Cl
BRANCH  19  23
ATOM     23  C   UNL d   1      78.350  65.315  88.447  0.00  0.00     0.419 C 
ATOM     24  F   UNL d   1      78.526  64.560  88.166  0.00  0.00    -0.166 F 
ATOM     25  F   UNL d   1      78.227  64.658  89.765  0.00  0.00    -0.166 F 
ATOM     26  F   UNL d   1      76.968  65.104  87.996  0.00  0.00    -0.166 F 
ENDBRANCH  19  23
ENDBRANCH   1  15
TORSDOF 4
ENDMDL
MODEL 15
REMARK VINA RESULT:      -6.6      2.393      3.330
REMARK  4 active torsions:
REMARK  status: ('A' for Active; 'I' for Inactive)
REMARK    1  A    between atoms: C_4  and  C_5 
REMARK    2  A    between atoms: C_12  and  N_13 
REMARK    3  A    between atoms: C_16  and  S_17 
REMARK    4  A    between atoms: S_17  and  C_19 
ROOT
ATOM      1  N   UNL d   1      77.724  70.479  90.535  0.00  0.00    -0.214 N 
ATOM      2  C   UNL d   1      77.909  71.776  90.102  0.00  0.00     0.163 A 
ATOM      3  N   UNL d   1      78.585  72.187  88.917  0.00  0.00    -0.079 NA
ATOM      4  C   UNL d   1      77.360  72.590  91.064  0.00  0.00     0.124 A 
ATOM      5  C   UNL d   1      76.918  71.720  92.075  0.00  0.00     0.180 A 
ATOM      6  C   UNL d   1      76.298  72.048  93.325  0.00  0.00     0.123 C 
ATOM      7  N   UNL d   1      75.790  72.383  94.316  0.00  0.00    -0.190 NA
ATOM      8  N   UNL d   1      77.157  70.439  91.771  0.00  0.00    -0.153 NA
ENDROOT
BRANCH   4   9
ATOM      9  S   UNL d   1      77.247  74.308  91.098  0.00  0.00     0.164 S 
ATOM     10  O   UNL d   1      78.234  74.827  90.090  0.00  0.00    -0.244 OA
BRANCH   9  11
ATOM     11  C   UNL d   1      75.566  74.430  90.409  0.00  0.00     0.477 C 
ATOM     12  F   UNL d   1      75.261  75.681  89.981  0.00  0.00    -0.158 F 
ATOM     13  F   UNL d   1      74.624  74.072  91.316  0.00  0.00    -0.158 F 
ATOM     14  F   UNL d   1      75.416  73.601  89.341  0.00  0.00    -0.158 F 
ENDBRANCH   9  11
ENDBRANCH   4   9
BRANCH   1  15
ATOM     15  C   UNL d   1      77.992  69.273  89.857  0.00  0.00     0.105 C 
ATOM     16  C   UNL d   1      79.021  68.449  90.272  0.00  0.00     0.076 C 
ATOM     17 CL   UNL d   1      80.230  68.889  91.417  0.00  0.00    -0.081 Cl
ATOM     18  C   UNL d   1      79.192  67.209  89.629  0.00  0.00     0.017 C 
ATOM     19  C   UNL d   1      78.419  66.542  88.632  0.00  0.00     0.073 C 
ATOM     20  C   UNL d   1      77.487  67.552  88.239  0.00  0.00     0.017 C 
ATOM     21  C   UNL d   1      77.216  68.825  88.801  0.00  0.00     0.076 C 
ATOM     22 CL   UNL d   1      75.802  69.614  88.215  0.00  0.00    -0.081 Cl
BRANCH  19  23
ATOM     23  C   UNL d   1      78.537  65.839  88.216  0.00  0.00     0.419 C 
ATOM     24  F   UNL d   1      78.655  65.136  87.800  0.00  0.00    -0.166 F 
ATOM     25  F   UNL d   1      78.593  64.988  89.422  0.00  0.00    -0.166 F 
ATOM     26  F   UNL d   1      77.100  65.697  87.946  0.00  0.00    -0.166 F 
ENDBRANCH  19  23
ENDBRANCH   1  15
TORSDOF 4
ENDMDL
MODEL 16
REMARK VINA RESULT:      -6.6      9.374     12.718
REMARK  4 active torsions:
REMARK  status: ('A' for Active; 'I' for Inactive)
REMARK    1  A    between atoms: C_4  and  C_5 
REMARK    2  A    between atoms: C_12  and  N_13 
REMARK    3  A    between atoms: C_16  and  S_17 
REMARK    4  A    between atoms: S_17  and  C_19 
ROOT
ATOM      1  N   UNL d   1      81.935  77.944  96.317  0.00  0.00    -0.214 N 
ATOM      2  C   UNL d   1      81.018  77.327  95.490  0.00  0.00     0.163 A 
ATOM      3  N   UNL d   1      80.885  77.513  94.084  0.00  0.00    -0.079 NA
ATOM      4  C   UNL d   1      80.229  76.545  96.299  0.00  0.00     0.124 A 
ATOM      5  C   UNL d   1      80.686  76.784  97.605  0.00  0.00     0.180 A 
ATOM      6  C   UNL d   1      80.188  76.246  98.837  0.00  0.00     0.123 C 
ATOM      7  N   UNL d   1      79.742  75.765  99.797  0.00  0.00    -0.190 NA
ATOM      8  N   UNL d   1      81.706  77.651  97.625  0.00  0.00    -0.153 NA
ENDROOT
BRANCH   4   9
ATOM      9  S   UNL d   1      78.923  75.508  95.866  0.00  0.00     0.164 S 
ATOM     10  O   UNL d   1      78.074  76.266  94.883  0.00  0.00    -0.244 OA
BRANCH   9  11
ATOM     11  C   UNL d   1      79.914  74.269  94.973  0.00  0.00     0.477 C 
ATOM     12  F   UNL d   1      79.956  74.491  93.636  0.00  0.00    -0.158 F 
ATOM     13  F   UNL d   1      79.435  73.013  95.160  0.00  0.00    -0.158 F 
ATOM     14  F   UNL d   1      81.201  74.266  95.412  0.00  0.00    -0.158 F 
ENDBRANCH   9  11
ENDBRANCH   4   9
BRANCH   1  15
ATOM     15  C   UNL d   1      83.040  78.746  95.971  0.00  0.00     0.105 C 
ATOM     16  C   UNL d   1      84.253  78.169  95.649  0.00  0.00     0.076 C 
ATOM     17 CL   UNL d   1      84.647  76.510  95.894  0.00  0.00    -0.081 Cl
ATOM     18  C   UNL d   1      85.302  79.002  95.216  0.00  0.00     0.017 C 
ATOM     19  C   UNL d   1      85.350  80.400  94.935  0.00  0.00     0.073 C 
ATOM     20  C   UNL d   1      84.084  80.854  95.420  0.00  0.00     0.017 C 
ATOM     21  C   UNL d   1      82.955  80.126  95.874  0.00  0.00     0.076 C 
ATOM     22 CL   UNL d   1      81.512  81.041  96.086  0.00  0.00    -0.081 Cl
BRANCH  19  23
ATOM     23  C   UNL d   1      85.969  80.904  94.727  0.00  0.00     0.419 C 
ATOM     24  F   UNL d   1      86.589  81.407  94.519  0.00  0.00    -0.166 F 
ATOM     25  F   UNL d   1      85.826  81.775  95.911  0.00  0.00    -0.166 F 
ATOM     26  F   UNL d   1      86.972  79.985  95.284  0.00  0.00    -0.166 F 
ENDBRANCH  19  23
ENDBRANCH   1  15
TORSDOF 4
ENDMDL
MODEL 17
REMARK VINA RESULT:      -6.6      2.342      3.463
REMARK  4 active torsions:
REMARK  status: ('A' for Active; 'I' for Inactive)
REMARK    1  A    between atoms: C_4  and  C_5 
REMARK    2  A    between atoms: C_12  and  N_13 
REMARK    3  A    between atoms: C_16  and  S_17 
REMARK    4  A    between atoms: S_17  and  C_19 
ROOT
ATOM      1  N   UNL d   1      76.946  69.838  90.558  0.00  0.00    -0.214 N 
ATOM      2  C   UNL d   1      77.656  70.910  91.058  0.00  0.00     0.163 A 
ATOM      3  N   UNL d   1      79.057  70.954  91.317  0.00  0.00    -0.079 NA
ATOM      4  C   UNL d   1      76.739  71.903  91.306  0.00  0.00     0.124 A 
ATOM      5  C   UNL d   1      75.492  71.341  90.989  0.00  0.00     0.180 A 
ATOM      6  C   UNL d   1      74.192  71.936  91.097  0.00  0.00     0.123 C 
ATOM      7  N   UNL d   1      73.170  72.483  91.199  0.00  0.00    -0.190 NA
ATOM      8  N   UNL d   1      75.608  70.079  90.557  0.00  0.00    -0.153 NA
ENDROOT
BRANCH   4   9
ATOM      9  S   UNL d   1      76.998  73.495  91.910  0.00  0.00     0.164 S 
ATOM     10  O   UNL d   1      78.424  73.552  92.385  0.00  0.00    -0.244 OA
BRANCH   9  11
ATOM     11  C   UNL d   1      76.862  74.360  90.313  0.00  0.00     0.477 C 
ATOM     12  F   UNL d   1      75.592  74.737  90.023  0.00  0.00    -0.158 F 
ATOM     13  F   UNL d   1      77.302  73.592  89.286  0.00  0.00    -0.158 F 
ATOM     14  F   UNL d   1      77.619  75.491  90.307  0.00  0.00    -0.158 F 
ENDBRANCH   9  11
ENDBRANCH   4   9
BRANCH   1  15
ATOM     15  C   UNL d   1      77.430  68.623  90.033  0.00  0.00     0.105 C 
ATOM     16  C   UNL d   1      77.861  67.616  90.877  0.00  0.00     0.076 C 
ATOM     17 CL   UNL d   1      78.126  67.800  92.569  0.00  0.00    -0.081 Cl
ATOM     18  C   UNL d   1      78.245  66.384  90.315  0.00  0.00     0.017 C 
ATOM     19  C   UNL d   1      78.194  65.895  88.975  0.00  0.00     0.073 C 
ATOM     20  C   UNL d   1      77.847  67.067  88.233  0.00  0.00     0.017 C 
ATOM     21  C   UNL d   1      77.442  68.352  88.674  0.00  0.00     0.076 C 
ATOM     22 CL   UNL d   1      76.818  69.398  87.457  0.00  0.00    -0.081 Cl
BRANCH  19  23
ATOM     23  C   UNL d   1      78.460  65.195  88.630  0.00  0.00     0.419 C 
ATOM     24  F   UNL d   1      78.725  64.494  88.284  0.00  0.00    -0.166 F 
ATOM     25  F   UNL d   1      78.299  65.671  87.240  0.00  0.00    -0.166 F 
ATOM     26  F   UNL d   1      79.866  65.581  88.804  0.00  0.00    -0.166 F 
ENDBRANCH  19  23
ENDBRANCH   1  15
TORSDOF 4
ENDMDL
MODEL 18
REMARK VINA RESULT:      -6.4      4.562      5.889
REMARK  4 active torsions:
REMARK  status: ('A' for Active; 'I' for Inactive)
REMARK    1  A    between atoms: C_4  and  C_5 
REMARK    2  A    between atoms: C_12  and  N_13 
REMARK    3  A    between atoms: C_16  and  S_17 
REMARK    4  A    between atoms: S_17  and  C_19 
ROOT
ATOM      1  N   UNL d   1      78.356  68.155  90.883  0.00  0.00    -0.214 N 
ATOM      2  C   UNL d   1      79.468  68.832  91.338  0.00  0.00     0.163 A 
ATOM      3  N   UNL d   1      80.168  69.870  90.656  0.00  0.00    -0.079 NA
ATOM      4  C   UNL d   1      79.796  68.273  92.550  0.00  0.00     0.124 A 
ATOM      5  C   UNL d   1      78.879  67.226  92.734  0.00  0.00     0.180 A 
ATOM      6  C   UNL d   1      78.793  66.295  93.821  0.00  0.00     0.123 C 
ATOM      7  N   UNL d   1      78.774  65.580  94.738  0.00  0.00    -0.190 NA
ATOM      8  N   UNL d   1      78.016  67.134  91.714  0.00  0.00    -0.153 NA
ENDROOT
BRANCH   4   9
ATOM      9  S   UNL d   1      81.069  68.693  93.631  0.00  0.00     0.164 S 
ATOM     10  O   UNL d   1      82.244  69.096  92.783  0.00  0.00    -0.244 OA
BRANCH   9  11
ATOM     11  C   UNL d   1      80.287  70.187  94.320  0.00  0.00     0.477 C 
ATOM     12  F   UNL d   1      78.936  70.089  94.396  0.00  0.00    -0.158 F 
ATOM     13  F   UNL d   1      80.571  71.289  93.582  0.00  0.00    -0.158 F 
ATOM     14  F   UNL d   1      80.735  70.434  95.580  0.00  0.00    -0.158 F 
ENDBRANCH   9  11
ENDBRANCH   4   9
BRANCH   1  15
ATOM     15  C   UNL d   1      77.556  68.423  89.754  0.00  0.00     0.105 C 
ATOM     16  C   UNL d   1      76.696  69.505  89.744  0.00  0.00     0.076 C 
ATOM     17 CL   UNL d   1      76.287  70.447  91.126  0.00  0.00    -0.081 Cl
ATOM     18  C   UNL d   1      75.989  69.792  88.561  0.00  0.00     0.017 C 
ATOM     19  C   UNL d   1      76.046  69.215  87.257  0.00  0.00     0.073 C 
ATOM     20  C   UNL d   1      76.872  68.067  87.465  0.00  0.00     0.017 C 
ATOM     21  C   UNL d   1      77.634  67.670  88.593  0.00  0.00     0.076 C 
ATOM     22 CL   UNL d   1      78.737  66.374  88.332  0.00  0.00    -0.081 Cl
BRANCH  19  23
ATOM     23  C   UNL d   1      75.603  69.344  86.573  0.00  0.00     0.419 C 
ATOM     24  F   UNL d   1      75.161  69.474  85.889  0.00  0.00    -0.166 F 
ATOM     25  F   UNL d   1      75.914  70.786  86.493  0.00  0.00    -0.166 F 
ATOM     26  F   UNL d   1      76.694  68.864  85.714  0.00  0.00    -0.166 F 
ENDBRANCH  19  23
ENDBRANCH   1  15
TORSDOF 4
ENDMDL
MODEL 19
REMARK VINA RESULT:      -6.4     22.245     23.493
REMARK  4 active torsions:
REMARK  status: ('A' for Active; 'I' for Inactive)
REMARK    1  A    between atoms: C_4  and  C_5 
REMARK    2  A    between atoms: C_12  and  N_13 
REMARK    3  A    between atoms: C_16  and  S_17 
REMARK    4  A    between atoms: S_17  and  C_19 
ROOT
ATOM      1  N   UNL d   1      60.977  87.887  92.078  0.00  0.00    -0.214 N 
ATOM      2  C   UNL d   1      62.108  88.575  91.689  0.00  0.00     0.163 A 
ATOM      3  N   UNL d   1      62.800  88.438  90.451  0.00  0.00    -0.079 NA
ATOM      4  C   UNL d   1      62.463  89.373  92.750  0.00  0.00     0.124 A 
ATOM      5  C   UNL d   1      61.540  89.071  93.764  0.00  0.00     0.180 A 
ATOM      6  C   UNL d   1      61.475  89.598  95.096  0.00  0.00     0.123 C 
ATOM      7  N   UNL d   1      61.473  90.073  96.158  0.00  0.00    -0.190 NA
ATOM      8  N   UNL d   1      60.649  88.152  93.371  0.00  0.00    -0.153 NA
ENDROOT
BRANCH   4   9
ATOM      9  S   UNL d   1      63.769  90.488  92.881  0.00  0.00     0.164 S 
ATOM     10  O   UNL d   1      63.282  91.627  93.734  0.00  0.00    -0.244 OA
BRANCH   9  11
ATOM     11  C   UNL d   1      64.868  89.425  93.870  0.00  0.00     0.477 C 
ATOM     12  F   UNL d   1      64.738  89.628  95.204  0.00  0.00    -0.158 F 
ATOM     13  F   UNL d   1      66.173  89.622  93.556  0.00  0.00    -0.158 F 
ATOM     14  F   UNL d   1      64.605  88.110  93.643  0.00  0.00    -0.158 F 
ENDBRANCH   9  11
ENDBRANCH   4   9
BRANCH   1  15
ATOM     15  C   UNL d   1      60.151  87.038  91.315  0.00  0.00     0.105 C 
ATOM     16  C   UNL d   1      58.929  87.484  90.847  0.00  0.00     0.076 C 
ATOM     17 CL   UNL d   1      58.160  88.943  91.344  0.00  0.00    -0.081 Cl
ATOM     18  C   UNL d   1      58.179  86.638  90.009  0.00  0.00     0.017 C 
ATOM     19  C   UNL d   1      58.478  85.368  89.430  0.00  0.00     0.073 C 
ATOM     20  C   UNL d   1      59.693  85.007  90.091  0.00  0.00     0.017 C 
ATOM     21  C   UNL d   1      60.537  85.760  90.946  0.00  0.00     0.076 C 
ATOM     22 CL   UNL d   1      62.070  85.057  91.291  0.00  0.00    -0.081 Cl
BRANCH  19  23
ATOM     23  C   UNL d   1      58.029  84.844  88.978  0.00  0.00     0.419 C 
ATOM     24  F   UNL d   1      57.579  84.321  88.525  0.00  0.00    -0.166 F 
ATOM     25  F   UNL d   1      56.900  84.792  89.929  0.00  0.00    -0.166 F 
ATOM     26  F   UNL d   1      57.518  85.932  88.133  0.00  0.00    -0.166 F 
ENDBRANCH  19  23
ENDBRANCH   1  15
TORSDOF 4
ENDMDL
MODEL 20
REMARK VINA RESULT:      -6.3     22.165     23.726
REMARK  4 active torsions:
REMARK  status: ('A' for Active; 'I' for Inactive)
REMARK    1  A    between atoms: C_4  and  C_5 
REMARK    2  A    between atoms: C_12  and  N_13 
REMARK    3  A    between atoms: C_16  and  S_17 
REMARK    4  A    between atoms: S_17  and  C_19 
ROOT
ATOM      1  N   UNL d   1      62.082  88.614  92.786  0.00  0.00    -0.214 N 
ATOM      2  C   UNL d   1      62.974  87.777  93.425  0.00  0.00     0.163 A 
ATOM      3  N   UNL d   1      62.763  86.407  93.757  0.00  0.00    -0.079 NA
ATOM      4  C   UNL d   1      64.078  88.539  93.723  0.00  0.00     0.124 A 
ATOM      5  C   UNL d   1      63.759  89.836  93.291  0.00  0.00     0.180 A 
ATOM      6  C   UNL d   1      64.548  91.029  93.392  0.00  0.00     0.123 C 
ATOM      7  N   UNL d   1      65.244  91.955  93.496  0.00  0.00    -0.190 NA
ATOM      8  N   UNL d   1      62.539  89.894  92.742  0.00  0.00    -0.153 NA
ENDROOT
BRANCH   4   9
ATOM      9  S   UNL d   1      65.544  88.070  94.494  0.00  0.00     0.164 S 
ATOM     10  O   UNL d   1      66.648  88.855  93.841  0.00  0.00    -0.244 OA
BRANCH   9  11
ATOM     11  C   UNL d   1      65.177  88.794  96.124  0.00  0.00     0.477 C 
ATOM     12  F   UNL d   1      65.585  90.083  96.234  0.00  0.00    -0.158 F 
ATOM     13  F   UNL d   1      65.765  88.097  97.128  0.00  0.00    -0.158 F 
ATOM     14  F   UNL d   1      63.839  88.783  96.372  0.00  0.00    -0.158 F 
ENDBRANCH   9  11
ENDBRANCH   4   9
BRANCH   1  15
ATOM     15  C   UNL d   1      60.856  88.296  92.169  0.00  0.00     0.105 C 
ATOM     16  C   UNL d   1      60.820  87.884  90.850  0.00  0.00     0.076 C 
ATOM     17 CL   UNL d   1      62.147  87.977  89.757  0.00  0.00    -0.081 Cl
ATOM     18  C   UNL d   1      59.586  87.484  90.303  0.00  0.00     0.017 C 
ATOM     19  C   UNL d   1      58.296  87.319  90.890  0.00  0.00     0.073 C 
ATOM     20  C   UNL d   1      58.476  87.885  92.191  0.00  0.00     0.017 C 
ATOM     21  C   UNL d   1      59.651  88.318  92.854  0.00  0.00     0.076 C 
ATOM     22 CL   UNL d   1      59.480  88.656  94.534  0.00  0.00    -0.081 Cl
BRANCH  19  23
ATOM     23  C   UNL d   1      57.560  87.132  90.569  0.00  0.00     0.419 C 
ATOM     24  F   UNL d   1      56.824  86.944  90.247  0.00  0.00    -0.166 F 
ATOM     25  F   UNL d   1      57.050  86.481  91.792  0.00  0.00    -0.166 F 
ATOM     26  F   UNL d   1      57.041  88.480  90.836  0.00  0.00    -0.166 F 
ENDBRANCH  19  23
ENDBRANCH   1  15
TORSDOF 4
ENDMDL
