MODEL 1
REMARK VINA RESULT:      -6.3      0.000      0.000
REMARK  5 active torsions:
REMARK  status: ('A' for Active; 'I' for Inactive)
REMARK    1  A    between atoms: C_3  and  C_9 
REMARK    2  A    between atoms: C_9  and  C_10 
REMARK    3  A    between atoms: C_9  and  C_16 
REMARK    4  A    between atoms: C_10  and  N_11 
REMARK    5  A    between atoms: C_16  and  N_17 
ROOT
ATOM      1  C   UNL d   1      57.025  72.019  79.175  0.00  0.00     0.273 C 
ATOM      2  O   UNL d   1      58.245  72.203  78.722  0.00  0.00    -0.193 OA
ENDROOT
BRANCH   1   3
ATOM      3  C   UNL d   1      57.055  72.163  80.693  0.00  0.00     0.058 A 
ATOM      4  C   UNL d   1      58.290  72.316  81.354  0.00  0.00     0.005 A 
ATOM      5  C   UNL d   1      58.376  72.489  82.733  0.00  0.00     0.030 A 
ATOM      6  C   UNL d   1      57.208  72.519  83.479  0.00  0.00     0.142 A 
ATOM      7  C   UNL d   1      55.968  72.380  82.874  0.00  0.00     0.059 A 
ATOM      8  F   UNL d   1      57.279  72.681  84.810  0.00  0.00    -0.204 F 
ATOM      9  C   UNL d   1      55.898  72.208  81.492  0.00  0.00     0.143 A 
ATOM     10  F   UNL d   1      54.673  72.080  80.957  0.00  0.00    -0.204 F 
ENDBRANCH   1   3
BRANCH   1  11
ATOM     11  C   UNL d   1      56.632  70.676  78.750  0.00  0.00     0.021 C 
BRANCH  11  12
ATOM     12  N   UNL d   1      56.344  69.353  78.334  0.00  0.00    -0.173 N 
ATOM     13  C   UNL d   1      57.257  68.501  77.769  0.00  0.00     0.210 A 
ATOM     14  N   UNL d   1      56.683  67.346  77.499  0.00  0.00    -0.200 NA
ATOM     15  C   UNL d   1      55.401  67.548  77.927  0.00  0.00     0.222 A 
ATOM     16  N   UNL d   1      55.142  68.749  78.447  0.00  0.00    -0.134 NA
ENDBRANCH  11  12
ENDBRANCH   1  11
BRANCH   1  17
ATOM     17  C   UNL d   1      56.173  73.008  78.522  0.00  0.00     0.021 C 
BRANCH  17  18
ATOM     18  N   UNL d   1      55.357  74.030  77.979  0.00  0.00    -0.173 N 
ATOM     19  N   UNL d   1      54.518  74.812  78.690  0.00  0.00    -0.134 NA
ATOM     20  C   UNL d   1      54.005  75.586  77.733  0.00  0.00     0.222 A 
ATOM     21  N   UNL d   1      54.459  75.352  76.465  0.00  0.00    -0.200 NA
ATOM     22  C   UNL d   1      55.312  74.364  76.649  0.00  0.00     0.210 A 
ENDBRANCH  17  18
ENDBRANCH   1  17
TORSDOF 5
ENDMDL
MODEL 2
REMARK VINA RESULT:      -6.1     21.553     23.002
REMARK  5 active torsions:
REMARK  status: ('A' for Active; 'I' for Inactive)
REMARK    1  A    between atoms: C_3  and  C_9 
REMARK    2  A    between atoms: C_9  and  C_10 
REMARK    3  A    between atoms: C_9  and  C_16 
REMARK    4  A    between atoms: C_10  and  N_11 
REMARK    5  A    between atoms: C_16  and  N_17 
ROOT
ATOM      1  C   UNL d   1      74.950  70.154  90.401  0.00  0.00     0.273 C 
ATOM      2  O   UNL d   1      73.701  69.810  90.182  0.00  0.00    -0.193 OA
ENDROOT
BRANCH   1   3
ATOM      3  C   UNL d   1      75.799  69.620  89.251  0.00  0.00     0.058 A 
ATOM      4  C   UNL d   1      75.186  69.293  88.025  0.00  0.00     0.005 A 
ATOM      5  C   UNL d   1      75.915  68.837  86.930  0.00  0.00     0.030 A 
ATOM      6  C   UNL d   1      77.291  68.708  87.047  0.00  0.00     0.142 A 
ATOM      7  C   UNL d   1      77.941  69.025  88.230  0.00  0.00     0.059 A 
ATOM      8  F   UNL d   1      78.003  68.266  86.000  0.00  0.00    -0.204 F 
ATOM      9  C   UNL d   1      77.197  69.480  89.318  0.00  0.00     0.143 A 
ATOM     10  F   UNL d   1      77.877  69.774  90.439  0.00  0.00    -0.204 F 
ENDBRANCH   1   3
BRANCH   1  11
ATOM     11  C   UNL d   1      75.316  69.561  91.686  0.00  0.00     0.021 C 
BRANCH  11  12
ATOM     12  N   UNL d   1      75.703  68.911  92.884  0.00  0.00    -0.173 N 
ATOM     13  C   UNL d   1      76.780  68.070  92.997  0.00  0.00     0.210 A 
ATOM     14  N   UNL d   1      76.876  67.632  94.236  0.00  0.00    -0.200 NA
ATOM     15  C   UNL d   1      75.820  68.246  94.847  0.00  0.00     0.222 A 
ATOM     16  N   UNL d   1      75.077  69.038  94.072  0.00  0.00    -0.134 NA
ENDBRANCH  11  12
ENDBRANCH   1  11
BRANCH   1  17
ATOM     17  C   UNL d   1      74.980  71.610  90.507  0.00  0.00     0.021 C 
BRANCH  17  18
ATOM     18  N   UNL d   1      74.904  73.022  90.576  0.00  0.00    -0.173 N 
ATOM     19  N   UNL d   1      75.835  73.873  90.096  0.00  0.00    -0.134 NA
ATOM     20  C   UNL d   1      75.298  75.053  90.406  0.00  0.00     0.222 A 
ATOM     21  N   UNL d   1      74.091  75.012  91.047  0.00  0.00    -0.200 NA
ATOM     22  C   UNL d   1      73.866  73.717  91.142  0.00  0.00     0.210 A 
ENDBRANCH  17  18
ENDBRANCH   1  17
TORSDOF 5
ENDMDL
MODEL 3
REMARK VINA RESULT:      -6.1     22.580     24.944
REMARK  5 active torsions:
REMARK  status: ('A' for Active; 'I' for Inactive)
REMARK    1  A    between atoms: C_3  and  C_9 
REMARK    2  A    between atoms: C_9  and  C_10 
REMARK    3  A    between atoms: C_9  and  C_16 
REMARK    4  A    between atoms: C_10  and  N_11 
REMARK    5  A    between atoms: C_16  and  N_17 
ROOT
ATOM      1  C   UNL d   1      78.238  67.602  90.023  0.00  0.00     0.273 C 
ATOM      2  O   UNL d   1      79.410  68.192  90.096  0.00  0.00    -0.193 OA
ENDROOT
BRANCH   1   3
ATOM      3  C   UNL d   1      77.518  68.124  88.784  0.00  0.00     0.058 A 
ATOM      4  C   UNL d   1      76.520  69.109  88.921  0.00  0.00     0.005 A 
ATOM      5  C   UNL d   1      75.856  69.650  87.823  0.00  0.00     0.030 A 
ATOM      6  C   UNL d   1      76.194  69.211  86.552  0.00  0.00     0.142 A 
ATOM      7  C   UNL d   1      77.175  68.249  86.365  0.00  0.00     0.059 A 
ATOM      8  F   UNL d   1      75.558  69.722  85.487  0.00  0.00    -0.204 F 
ATOM      9  C   UNL d   1      77.832  67.718  87.474  0.00  0.00     0.143 A 
ATOM     10  F   UNL d   1      78.774  66.791  87.236  0.00  0.00    -0.204 F 
ENDBRANCH   1   3
BRANCH   1  11
ATOM     11  C   UNL d   1      77.535  67.941  91.260  0.00  0.00     0.021 C 
BRANCH  11  12
ATOM     12  N   UNL d   1      76.812  68.185  92.453  0.00  0.00    -0.173 N 
ATOM     13  C   UNL d   1      75.742  69.037  92.552  0.00  0.00     0.210 A 
ATOM     14  N   UNL d   1      75.287  69.041  93.788  0.00  0.00    -0.200 NA
ATOM     15  C   UNL d   1      76.124  68.160  94.412  0.00  0.00     0.222 A 
ATOM     16  N   UNL d   1      77.066  67.607  93.646  0.00  0.00    -0.134 NA
ENDBRANCH  11  12
ENDBRANCH   1  11
BRANCH   1  17
ATOM     17  C   UNL d   1      78.486  66.164  89.979  0.00  0.00     0.021 C 
BRANCH  17  18
ATOM     18  N   UNL d   1      78.819  64.788  89.991  0.00  0.00    -0.173 N 
ATOM     19  N   UNL d   1      79.353  64.111  88.952  0.00  0.00    -0.134 NA
ATOM     20  C   UNL d   1      79.472  62.887  89.470  0.00  0.00     0.222 A 
ATOM     21  N   UNL d   1      79.052  62.740  90.762  0.00  0.00    -0.200 NA
ATOM     22  C   UNL d   1      78.645  63.956  91.067  0.00  0.00     0.210 A 
ENDBRANCH  17  18
ENDBRANCH   1  17
TORSDOF 5
ENDMDL
MODEL 4
REMARK VINA RESULT:      -6.0     21.229     23.410
REMARK  5 active torsions:
REMARK  status: ('A' for Active; 'I' for Inactive)
REMARK    1  A    between atoms: C_3  and  C_9 
REMARK    2  A    between atoms: C_9  and  C_10 
REMARK    3  A    between atoms: C_9  and  C_16 
REMARK    4  A    between atoms: C_10  and  N_11 
REMARK    5  A    between atoms: C_16  and  N_17 
ROOT
ATOM      1  C   UNL d   1      76.682  72.146  90.959  0.00  0.00     0.273 C 
ATOM      2  O   UNL d   1      77.019  71.628  92.119  0.00  0.00    -0.193 OA
ENDROOT
BRANCH   1   3
ATOM      3  C   UNL d   1      76.683  71.029  89.920  0.00  0.00     0.058 A 
ATOM      4  C   UNL d   1      76.984  69.710  90.316  0.00  0.00     0.005 A 
ATOM      5  C   UNL d   1      76.963  68.645  89.419  0.00  0.00     0.030 A 
ATOM      6  C   UNL d   1      76.627  68.888  88.096  0.00  0.00     0.142 A 
ATOM      7  C   UNL d   1      76.315  70.167  87.661  0.00  0.00     0.059 A 
ATOM      8  F   UNL d   1      76.607  67.870  87.223  0.00  0.00    -0.204 F 
ATOM      9  C   UNL d   1      76.340  71.223  88.570  0.00  0.00     0.143 A 
ATOM     10  F   UNL d   1      76.027  72.441  88.096  0.00  0.00    -0.204 F 
ENDBRANCH   1   3
BRANCH   1  11
ATOM     11  C   UNL d   1      77.679  73.177  90.670  0.00  0.00     0.021 C 
BRANCH  11  12
ATOM     12  N   UNL d   1      78.602  74.229  90.455  0.00  0.00    -0.173 N 
ATOM     13  C   UNL d   1      79.079  74.604  89.225  0.00  0.00     0.210 A 
ATOM     14  N   UNL d   1      79.915  75.614  89.360  0.00  0.00    -0.200 NA
ATOM     15  C   UNL d   1      79.911  75.820  90.710  0.00  0.00     0.222 A 
ATOM     16  N   UNL d   1      79.127  75.009  91.423  0.00  0.00    -0.134 NA
ENDBRANCH  11  12
ENDBRANCH   1  11
BRANCH   1  17
ATOM     17  C   UNL d   1      75.372  72.767  91.133  0.00  0.00     0.021 C 
BRANCH  17  18
ATOM     18  N   UNL d   1      74.130  73.440  91.223  0.00  0.00    -0.173 N 
ATOM     19  N   UNL d   1      72.947  72.850  91.499  0.00  0.00    -0.134 NA
ATOM     20  C   UNL d   1      72.119  73.895  91.468  0.00  0.00     0.222 A 
ATOM     21  N   UNL d   1      72.692  75.105  91.194  0.00  0.00    -0.200 NA
ATOM     22  C   UNL d   1      73.962  74.789  91.043  0.00  0.00     0.210 A 
ENDBRANCH  17  18
ENDBRANCH   1  17
TORSDOF 5
ENDMDL
MODEL 5
REMARK VINA RESULT:      -6.0     21.334     22.857
REMARK  5 active torsions:
REMARK  status: ('A' for Active; 'I' for Inactive)
REMARK    1  A    between atoms: C_3  and  C_9 
REMARK    2  A    between atoms: C_9  and  C_10 
REMARK    3  A    between atoms: C_9  and  C_16 
REMARK    4  A    between atoms: C_10  and  N_11 
REMARK    5  A    between atoms: C_16  and  N_17 
ROOT
ATOM      1  C   UNL d   1      74.770  70.403  90.309  0.00  0.00     0.273 C 
ATOM      2  O   UNL d   1      73.485  70.159  90.183  0.00  0.00    -0.193 OA
ENDROOT
BRANCH   1   3
ATOM      3  C   UNL d   1      74.960  71.915  90.398  0.00  0.00     0.058 A 
ATOM      4  C   UNL d   1      73.914  72.721  90.888  0.00  0.00     0.005 A 
ATOM      5  C   UNL d   1      74.045  74.101  91.026  0.00  0.00     0.030 A 
ATOM      6  C   UNL d   1      75.246  74.699  90.678  0.00  0.00     0.142 A 
ATOM      7  C   UNL d   1      76.307  73.947  90.198  0.00  0.00     0.059 A 
ATOM      8  F   UNL d   1      75.381  76.028  90.803  0.00  0.00    -0.204 F 
ATOM      9  C   UNL d   1      76.162  72.567  90.066  0.00  0.00     0.143 A 
ATOM     10  F   UNL d   1      77.221  71.886  89.599  0.00  0.00    -0.204 F 
ENDBRANCH   1   3
BRANCH   1  11
ATOM     11  C   UNL d   1      75.411  69.829  89.127  0.00  0.00     0.021 C 
BRANCH  11  12
ATOM     12  N   UNL d   1      76.112  69.315  88.009  0.00  0.00    -0.173 N 
ATOM     13  C   UNL d   1      75.834  69.634  86.704  0.00  0.00     0.210 A 
ATOM     14  N   UNL d   1      76.663  68.998  85.903  0.00  0.00    -0.200 NA
ATOM     15  C   UNL d   1      77.441  68.297  86.780  0.00  0.00     0.222 A 
ATOM     16  N   UNL d   1      77.151  68.457  88.073  0.00  0.00    -0.134 NA
ENDBRANCH  11  12
ENDBRANCH   1  11
BRANCH   1  17
ATOM     17  C   UNL d   1      75.223  69.697  91.504  0.00  0.00     0.021 C 
BRANCH  17  18
ATOM     18  N   UNL d   1      75.748  68.977  92.604  0.00  0.00    -0.173 N 
ATOM     19  N   UNL d   1      75.239  68.991  93.854  0.00  0.00    -0.134 NA
ATOM     20  C   UNL d   1      76.077  68.169  94.488  0.00  0.00     0.222 A 
ATOM     21  N   UNL d   1      77.080  67.634  93.730  0.00  0.00    -0.200 NA
ATOM     22  C   UNL d   1      76.849  68.161  92.544  0.00  0.00     0.210 A 
ENDBRANCH  17  18
ENDBRANCH   1  17
TORSDOF 5
ENDMDL
MODEL 6
REMARK VINA RESULT:      -6.0      1.719      2.081
REMARK  5 active torsions:
REMARK  status: ('A' for Active; 'I' for Inactive)
REMARK    1  A    between atoms: C_3  and  C_9 
REMARK    2  A    between atoms: C_9  and  C_10 
REMARK    3  A    between atoms: C_9  and  C_16 
REMARK    4  A    between atoms: C_10  and  N_11 
REMARK    5  A    between atoms: C_16  and  N_17 
ROOT
ATOM      1  C   UNL d   1      56.222  72.232  79.524  0.00  0.00     0.273 C 
ATOM      2  O   UNL d   1      56.965  72.937  78.701  0.00  0.00    -0.193 OA
ENDROOT
BRANCH   1   3
ATOM      3  C   UNL d   1      56.835  72.326  80.918  0.00  0.00     0.058 A 
ATOM      4  C   UNL d   1      55.993  72.423  82.044  0.00  0.00     0.005 A 
ATOM      5  C   UNL d   1      56.496  72.475  83.342  0.00  0.00     0.030 A 
ATOM      6  C   UNL d   1      57.868  72.420  83.533  0.00  0.00     0.142 A 
ATOM      7  C   UNL d   1      58.736  72.316  82.457  0.00  0.00     0.059 A 
ATOM      8  F   UNL d   1      58.363  72.473  84.779  0.00  0.00    -0.204 F 
ATOM      9  C   UNL d   1      58.219  72.266  81.164  0.00  0.00     0.143 A 
ATOM     10  F   UNL d   1      59.104  72.164  80.158  0.00  0.00    -0.204 F 
ENDBRANCH   1   3
BRANCH   1  11
ATOM     11  C   UNL d   1      56.226  70.865  79.005  0.00  0.00     0.021 C 
BRANCH  11  12
ATOM     12  N   UNL d   1      56.270  69.574  78.423  0.00  0.00    -0.173 N 
ATOM     13  C   UNL d   1      57.348  69.065  77.744  0.00  0.00     0.210 A 
ATOM     14  N   UNL d   1      57.079  67.844  77.331  0.00  0.00    -0.200 NA
ATOM     15  C   UNL d   1      55.807  67.651  77.792  0.00  0.00     0.222 A 
ATOM     16  N   UNL d   1      55.270  68.669  78.466  0.00  0.00    -0.134 NA
ENDBRANCH  11  12
ENDBRANCH   1  11
BRANCH   1  17
ATOM     17  C   UNL d   1      54.870  72.778  79.454  0.00  0.00     0.021 C 
BRANCH  17  18
ATOM     18  N   UNL d   1      53.577  73.327  79.279  0.00  0.00    -0.173 N 
ATOM     19  N   UNL d   1      52.809  73.833  80.268  0.00  0.00    -0.134 NA
ATOM     20  C   UNL d   1      51.723  74.209  79.591  0.00  0.00     0.222 A 
ATOM     21  N   UNL d   1      51.747  73.979  78.244  0.00  0.00    -0.200 NA
ATOM     22  C   UNL d   1      52.929  73.421  78.074  0.00  0.00     0.210 A 
ENDBRANCH  17  18
ENDBRANCH   1  17
TORSDOF 5
ENDMDL
MODEL 7
REMARK VINA RESULT:      -5.9     29.400     31.655
REMARK  5 active torsions:
REMARK  status: ('A' for Active; 'I' for Inactive)
REMARK    1  A    between atoms: C_3  and  C_9 
REMARK    2  A    between atoms: C_9  and  C_10 
REMARK    3  A    between atoms: C_9  and  C_16 
REMARK    4  A    between atoms: C_10  and  N_11 
REMARK    5  A    between atoms: C_16  and  N_17 
ROOT
ATOM      1  C   UNL d   1      82.679  77.828  96.037  0.00  0.00     0.273 C 
ATOM      2  O   UNL d   1      83.296  76.887  96.716  0.00  0.00    -0.193 OA
ENDROOT
BRANCH   1   3
ATOM      3  C   UNL d   1      83.713  78.871  95.622  0.00  0.00     0.058 A 
ATOM      4  C   UNL d   1      85.019  78.805  96.147  0.00  0.00     0.005 A 
ATOM      5  C   UNL d   1      86.014  79.705  95.775  0.00  0.00     0.030 A 
ATOM      6  C   UNL d   1      85.711  80.695  94.852  0.00  0.00     0.142 A 
ATOM      7  C   UNL d   1      84.443  80.796  94.301  0.00  0.00     0.059 A 
ATOM      8  F   UNL d   1      86.661  81.571  94.490  0.00  0.00    -0.204 F 
ATOM      9  C   UNL d   1      83.458  79.886  94.682  0.00  0.00     0.143 A 
ATOM     10  F   UNL d   1      82.248  80.028  94.117  0.00  0.00    -0.204 F 
ENDBRANCH   1   3
BRANCH   1  11
ATOM     11  C   UNL d   1      81.664  78.378  96.935  0.00  0.00     0.021 C 
BRANCH  11  12
ATOM     12  N   UNL d   1      80.625  78.837  97.780  0.00  0.00    -0.173 N 
ATOM     13  C   UNL d   1      79.598  78.055  98.244  0.00  0.00     0.210 A 
ATOM     14  N   UNL d   1      78.801  78.772  99.009  0.00  0.00    -0.200 NA
ATOM     15  C   UNL d   1      79.394  80.002  98.981  0.00  0.00     0.222 A 
ATOM     16  N   UNL d   1      80.509  80.096  98.253  0.00  0.00    -0.134 NA
ENDBRANCH  11  12
ENDBRANCH   1  11
BRANCH   1  17
ATOM     17  C   UNL d   1      82.030  77.180  94.902  0.00  0.00     0.021 C 
BRANCH  17  18
ATOM     18  N   UNL d   1      81.472  76.603  93.736  0.00  0.00    -0.173 N 
ATOM     19  N   UNL d   1      80.433  75.742  93.718  0.00  0.00    -0.134 NA
ATOM     20  C   UNL d   1      80.306  75.509  92.411  0.00  0.00     0.222 A 
ATOM     21  N   UNL d   1      81.191  76.161  91.598  0.00  0.00    -0.200 NA
ATOM     22  C   UNL d   1      81.916  76.845  92.461  0.00  0.00     0.210 A 
ENDBRANCH  17  18
ENDBRANCH   1  17
TORSDOF 5
ENDMDL
MODEL 8
REMARK VINA RESULT:      -5.8     30.797     32.139
REMARK  5 active torsions:
REMARK  status: ('A' for Active; 'I' for Inactive)
REMARK    1  A    between atoms: C_3  and  C_9 
REMARK    2  A    between atoms: C_9  and  C_10 
REMARK    3  A    between atoms: C_9  and  C_16 
REMARK    4  A    between atoms: C_10  and  N_11 
REMARK    5  A    between atoms: C_16  and  N_17 
ROOT
ATOM      1  C   UNL d   1      81.464  79.264  96.136  0.00  0.00     0.273 C 
ATOM      2  O   UNL d   1      80.874  78.773  95.069  0.00  0.00    -0.193 OA
ENDROOT
BRANCH   1   3
ATOM      3  C   UNL d   1      82.913  79.578  95.776  0.00  0.00     0.058 A 
ATOM      4  C   UNL d   1      83.429  80.866  96.024  0.00  0.00     0.005 A 
ATOM      5  C   UNL d   1      84.753  81.199  95.751  0.00  0.00     0.030 A 
ATOM      6  C   UNL d   1      85.594  80.229  95.226  0.00  0.00     0.142 A 
ATOM      7  C   UNL d   1      85.135  78.946  94.972  0.00  0.00     0.059 A 
ATOM      8  F   UNL d   1      86.870  80.540  94.955  0.00  0.00    -0.204 F 
ATOM      9  C   UNL d   1      83.807  78.627  95.251  0.00  0.00     0.143 A 
ATOM     10  F   UNL d   1      83.415  77.370  94.988  0.00  0.00    -0.204 F 
ENDBRANCH   1   3
BRANCH   1  11
ATOM     11  C   UNL d   1      81.357  78.234  97.168  0.00  0.00     0.021 C 
BRANCH  11  12
ATOM     12  N   UNL d   1      81.302  77.178  98.111  0.00  0.00    -0.173 N 
ATOM     13  C   UNL d   1      81.658  75.881  97.845  0.00  0.00     0.210 A 
ATOM     14  N   UNL d   1      81.499  75.144  98.925  0.00  0.00    -0.200 NA
ATOM     15  C   UNL d   1      81.039  76.052  99.836  0.00  0.00     0.222 A 
ATOM     16  N   UNL d   1      80.905  77.305  99.394  0.00  0.00    -0.134 NA
ENDBRANCH  11  12
ENDBRANCH   1  11
BRANCH   1  17
ATOM     17  C   UNL d   1      80.705  80.443  96.540  0.00  0.00     0.021 C 
BRANCH  17  18
ATOM     18  N   UNL d   1      80.050  81.611  96.999  0.00  0.00    -0.173 N 
ATOM     19  N   UNL d   1      78.721  81.836  96.925  0.00  0.00    -0.134 NA
ATOM     20  C   UNL d   1      78.627  83.044  97.481  0.00  0.00     0.222 A 
ATOM     21  N   UNL d   1      79.801  83.602  97.904  0.00  0.00    -0.200 NA
ATOM     22  C   UNL d   1      80.684  82.676  97.587  0.00  0.00     0.210 A 
ENDBRANCH  17  18
ENDBRANCH   1  17
TORSDOF 5
ENDMDL
MODEL 9
REMARK VINA RESULT:      -5.7     22.791     23.894
REMARK  5 active torsions:
REMARK  status: ('A' for Active; 'I' for Inactive)
REMARK    1  A    between atoms: C_3  and  C_9 
REMARK    2  A    between atoms: C_9  and  C_10 
REMARK    3  A    between atoms: C_9  and  C_16 
REMARK    4  A    between atoms: C_10  and  N_11 
REMARK    5  A    between atoms: C_16  and  N_17 
ROOT
ATOM      1  C   UNL d   1      76.217  70.744  90.066  0.00  0.00     0.273 C 
ATOM      2  O   UNL d   1      74.974  71.005  89.726  0.00  0.00    -0.193 OA
ENDROOT
BRANCH   1   3
ATOM      3  C   UNL d   1      76.720  69.602  89.190  0.00  0.00     0.058 A 
ATOM      4  C   UNL d   1      77.289  68.461  89.790  0.00  0.00     0.005 A 
ATOM      5  C   UNL d   1      77.731  67.372  89.043  0.00  0.00     0.030 A 
ATOM      6  C   UNL d   1      77.599  67.409  87.663  0.00  0.00     0.142 A 
ATOM      7  C   UNL d   1      77.040  68.505  87.026  0.00  0.00     0.059 A 
ATOM      8  F   UNL d   1      78.026  66.367  86.933  0.00  0.00    -0.204 F 
ATOM      9  C   UNL d   1      76.601  69.587  87.788  0.00  0.00     0.143 A 
ATOM     10  F   UNL d   1      76.065  70.623  87.121  0.00  0.00    -0.204 F 
ENDBRANCH   1   3
BRANCH   1  11
ATOM     11  C   UNL d   1      76.183  70.386  91.484  0.00  0.00     0.021 C 
BRANCH  11  12
ATOM     12  N   UNL d   1      76.144  70.131  92.876  0.00  0.00    -0.173 N 
ATOM     13  C   UNL d   1      76.108  68.880  93.436  0.00  0.00     0.210 A 
ATOM     14  N   UNL d   1      76.082  68.978  94.749  0.00  0.00    -0.200 NA
ATOM     15  C   UNL d   1      76.107  70.331  94.943  0.00  0.00     0.222 A 
ATOM     16  N   UNL d   1      76.149  71.078  93.838  0.00  0.00    -0.134 NA
ENDBRANCH  11  12
ENDBRANCH   1  11
BRANCH   1  17
ATOM     17  C   UNL d   1      76.975  71.979  89.891  0.00  0.00     0.021 C 
BRANCH  17  18
ATOM     18  N   UNL d   1      77.788  73.117  89.669  0.00  0.00    -0.173 N 
ATOM     19  N   UNL d   1      77.902  74.165  90.512  0.00  0.00    -0.134 NA
ATOM     20  C   UNL d   1      78.763  74.940  89.853  0.00  0.00     0.222 A 
ATOM     21  N   UNL d   1      79.205  74.459  88.653  0.00  0.00    -0.200 NA
ATOM     22  C   UNL d   1      78.573  73.306  88.561  0.00  0.00     0.210 A 
ENDBRANCH  17  18
ENDBRANCH   1  17
TORSDOF 5
ENDMDL
MODEL 10
REMARK VINA RESULT:      -5.7     19.951     22.646
REMARK  5 active torsions:
REMARK  status: ('A' for Active; 'I' for Inactive)
REMARK    1  A    between atoms: C_3  and  C_9 
REMARK    2  A    between atoms: C_9  and  C_10 
REMARK    3  A    between atoms: C_9  and  C_16 
REMARK    4  A    between atoms: C_10  and  N_11 
REMARK    5  A    between atoms: C_16  and  N_17 
ROOT
ATOM      1  C   UNL d   1      63.763  88.784  91.818  0.00  0.00     0.273 C 
ATOM      2  O   UNL d   1      64.191  89.829  91.146  0.00  0.00    -0.193 OA
ENDROOT
BRANCH   1   3
ATOM      3  C   UNL d   1      62.686  88.093  90.987  0.00  0.00     0.058 A 
ATOM      4  C   UNL d   1      62.397  88.564  89.691  0.00  0.00     0.005 A 
ATOM      5  C   UNL d   1      61.451  87.950  88.873  0.00  0.00     0.030 A 
ATOM      6  C   UNL d   1      60.778  86.834  89.347  0.00  0.00     0.142 A 
ATOM      7  C   UNL d   1      61.033  86.329  90.612  0.00  0.00     0.059 A 
ATOM      8  F   UNL d   1      59.862  86.238  88.569  0.00  0.00    -0.204 F 
ATOM      9  C   UNL d   1      61.983  86.953  91.419  0.00  0.00     0.143 A 
ATOM     10  F   UNL d   1      62.193  86.422  92.634  0.00  0.00    -0.204 F 
ENDBRANCH   1   3
BRANCH   1  11
ATOM     11  C   UNL d   1      63.245  89.300  93.084  0.00  0.00     0.021 C 
BRANCH  11  12
ATOM     12  N   UNL d   1      62.772  89.719  94.352  0.00  0.00    -0.173 N 
ATOM     13  C   UNL d   1      61.570  89.343  94.894  0.00  0.00     0.210 A 
ATOM     14  N   UNL d   1      61.424  89.895  96.082  0.00  0.00    -0.200 NA
ATOM     15  C   UNL d   1      62.583  90.605  96.220  0.00  0.00     0.222 A 
ATOM     16  N   UNL d   1      63.439  90.530  95.199  0.00  0.00    -0.134 NA
ENDBRANCH  11  12
ENDBRANCH   1  11
BRANCH   1  17
ATOM     17  C   UNL d   1      64.923  87.935  92.072  0.00  0.00     0.021 C 
BRANCH  17  18
ATOM     18  N   UNL d   1      66.099  87.201  92.361  0.00  0.00    -0.173 N 
ATOM     19  N   UNL d   1      66.505  86.097  91.698  0.00  0.00    -0.134 NA
ATOM     20  C   UNL d   1      67.635  85.804  92.343  0.00  0.00     0.222 A 
ATOM     21  N   UNL d   1      67.975  86.643  93.367  0.00  0.00    -0.200 NA
ATOM     22  C   UNL d   1      66.987  87.516  93.356  0.00  0.00     0.210 A 
ENDBRANCH  17  18
ENDBRANCH   1  17
TORSDOF 5
ENDMDL
MODEL 11
REMARK VINA RESULT:      -5.6     21.815     23.978
REMARK  5 active torsions:
REMARK  status: ('A' for Active; 'I' for Inactive)
REMARK    1  A    between atoms: C_3  and  C_9 
REMARK    2  A    between atoms: C_9  and  C_10 
REMARK    3  A    between atoms: C_9  and  C_16 
REMARK    4  A    between atoms: C_10  and  N_11 
REMARK    5  A    between atoms: C_16  and  N_17 
ROOT
ATOM      1  C   UNL d   1      76.369  69.926  90.961  0.00  0.00     0.273 C 
ATOM      2  O   UNL d   1      75.747  69.019  91.681  0.00  0.00    -0.193 OA
ENDROOT
BRANCH   1   3
ATOM      3  C   UNL d   1      76.642  69.333  89.582  0.00  0.00     0.058 A 
ATOM      4  C   UNL d   1      76.092  69.946  88.439  0.00  0.00     0.005 A 
ATOM      5  C   UNL d   1      76.337  69.472  87.153  0.00  0.00     0.030 A 
ATOM      6  C   UNL d   1      77.158  68.366  86.992  0.00  0.00     0.142 A 
ATOM      7  C   UNL d   1      77.729  67.733  88.085  0.00  0.00     0.059 A 
ATOM      8  F   UNL d   1      77.398  67.898  85.757  0.00  0.00    -0.204 F 
ATOM      9  C   UNL d   1      77.474  68.220  89.366  0.00  0.00     0.143 A 
ATOM     10  F   UNL d   1      78.054  67.571  90.389  0.00  0.00    -0.204 F 
ENDBRANCH   1   3
BRANCH   1  11
ATOM     11  C   UNL d   1      77.600  70.245  91.684  0.00  0.00     0.021 C 
BRANCH  11  12
ATOM     12  N   UNL d   1      78.781  70.643  92.357  0.00  0.00    -0.173 N 
ATOM     13  C   UNL d   1      80.028  70.666  91.787  0.00  0.00     0.210 A 
ATOM     14  N   UNL d   1      80.913  71.087  92.667  0.00  0.00    -0.200 NA
ATOM     15  C   UNL d   1      80.143  71.314  93.773  0.00  0.00     0.222 A 
ATOM     16  N   UNL d   1      78.839  71.065  93.637  0.00  0.00    -0.134 NA
ENDBRANCH  11  12
ENDBRANCH   1  11
BRANCH   1  17
ATOM     17  C   UNL d   1      75.507  71.103  90.919  0.00  0.00     0.021 C 
BRANCH  17  18
ATOM     18  N   UNL d   1      74.700  72.264  90.982  0.00  0.00    -0.173 N 
ATOM     19  N   UNL d   1      73.375  72.275  91.241  0.00  0.00    -0.134 NA
ATOM     20  C   UNL d   1      73.107  73.580  91.188  0.00  0.00     0.222 A 
ATOM     21  N   UNL d   1      74.166  74.399  90.915  0.00  0.00    -0.200 NA
ATOM     22  C   UNL d   1      75.160  73.542  90.790  0.00  0.00     0.210 A 
ENDBRANCH  17  18
ENDBRANCH   1  17
TORSDOF 5
ENDMDL
MODEL 12
REMARK VINA RESULT:      -5.4      1.784      2.645
REMARK  5 active torsions:
REMARK  status: ('A' for Active; 'I' for Inactive)
REMARK    1  A    between atoms: C_3  and  C_9 
REMARK    2  A    between atoms: C_9  and  C_10 
REMARK    3  A    between atoms: C_9  and  C_16 
REMARK    4  A    between atoms: C_10  and  N_11 
REMARK    5  A    between atoms: C_16  and  N_17 
ROOT
ATOM      1  C   UNL d   1      56.742  72.019  78.717  0.00  0.00     0.273 C 
ATOM      2  O   UNL d   1      57.912  72.400  79.179  0.00  0.00    -0.193 OA
ENDROOT
BRANCH   1   3
ATOM      3  C   UNL d   1      55.701  72.253  79.807  0.00  0.00     0.058 A 
ATOM      4  C   UNL d   1      54.347  72.419  79.454  0.00  0.00     0.005 A 
ATOM      5  C   UNL d   1      53.349  72.598  80.408  0.00  0.00     0.030 A 
ATOM      6  C   UNL d   1      53.698  72.605  81.750  0.00  0.00     0.142 A 
ATOM      7  C   UNL d   1      55.015  72.438  82.148  0.00  0.00     0.059 A 
ATOM      8  F   UNL d   1      52.745  72.781  82.678  0.00  0.00    -0.204 F 
ATOM      9  C   UNL d   1      56.003  72.259  81.181  0.00  0.00     0.143 A 
ATOM     10  F   UNL d   1      57.263  72.100  81.621  0.00  0.00    -0.204 F 
ENDBRANCH   1   3
BRANCH   1  11
ATOM     11  C   UNL d   1      56.882  70.605  78.374  0.00  0.00     0.021 C 
BRANCH  11  12
ATOM     12  N   UNL d   1      56.935  69.241  77.994  0.00  0.00    -0.173 N 
ATOM     13  C   UNL d   1      57.782  68.732  77.043  0.00  0.00     0.210 A 
ATOM     14  N   UNL d   1      57.592  67.434  76.924  0.00  0.00    -0.200 NA
ATOM     15  C   UNL d   1      56.606  67.197  77.840  0.00  0.00     0.222 A 
ATOM     16  N   UNL d   1      56.174  68.259  78.521  0.00  0.00    -0.134 NA
ENDBRANCH  11  12
ENDBRANCH   1  11
BRANCH   1  17
ATOM     17  C   UNL d   1      56.489  72.794  77.506  0.00  0.00     0.021 C 
BRANCH  17  18
ATOM     18  N   UNL d   1      56.321  73.615  76.365  0.00  0.00    -0.173 N 
ATOM     19  N   UNL d   1      57.055  73.532  75.235  0.00  0.00    -0.134 NA
ATOM     20  C   UNL d   1      56.509  74.497  74.495  0.00  0.00     0.222 A 
ATOM     21  N   UNL d   1      55.479  75.186  75.073  0.00  0.00    -0.200 NA
ATOM     22  C   UNL d   1      55.381  74.608  76.254  0.00  0.00     0.210 A 
ENDBRANCH  17  18
ENDBRANCH   1  17
TORSDOF 5
ENDMDL
MODEL 13
REMARK VINA RESULT:      -5.3      2.464      5.807
REMARK  5 active torsions:
REMARK  status: ('A' for Active; 'I' for Inactive)
REMARK    1  A    between atoms: C_3  and  C_9 
REMARK    2  A    between atoms: C_9  and  C_10 
REMARK    3  A    between atoms: C_9  and  C_16 
REMARK    4  A    between atoms: C_10  and  N_11 
REMARK    5  A    between atoms: C_16  and  N_17 
ROOT
ATOM      1  C   UNL d   1      56.812  71.963  78.937  0.00  0.00     0.273 C 
ATOM      2  O   UNL d   1      57.898  72.325  78.292  0.00  0.00    -0.193 OA
ENDROOT
BRANCH   1   3
ATOM      3  C   UNL d   1      55.668  72.866  78.486  0.00  0.00     0.058 A 
ATOM      4  C   UNL d   1      55.854  73.733  77.392  0.00  0.00     0.005 A 
ATOM      5  C   UNL d   1      54.835  74.552  76.913  0.00  0.00     0.030 A 
ATOM      6  C   UNL d   1      53.593  74.506  77.528  0.00  0.00     0.142 A 
ATOM      7  C   UNL d   1      53.358  73.664  78.604  0.00  0.00     0.059 A 
ATOM      8  F   UNL d   1      52.605  75.294  77.078  0.00  0.00    -0.204 F 
ATOM      9  C   UNL d   1      54.389  72.849  79.072  0.00  0.00     0.143 A 
ATOM     10  F   UNL d   1      54.107  72.051  80.115  0.00  0.00    -0.204 F 
ENDBRANCH   1   3
BRANCH   1  11
ATOM     11  C   UNL d   1      57.115  72.115  80.360  0.00  0.00     0.021 C 
BRANCH  11  12
ATOM     12  N   UNL d   1      57.327  72.310  81.747  0.00  0.00    -0.173 N 
ATOM     13  C   UNL d   1      58.535  72.632  82.309  0.00  0.00     0.210 A 
ATOM     14  N   UNL d   1      58.403  72.749  83.615  0.00  0.00    -0.200 NA
ATOM     15  C   UNL d   1      57.075  72.487  83.800  0.00  0.00     0.222 A 
ATOM     16  N   UNL d   1      56.373  72.219  82.697  0.00  0.00    -0.134 NA
ENDBRANCH  11  12
ENDBRANCH   1  11
BRANCH   1  17
ATOM     17  C   UNL d   1      56.585  70.554  78.633  0.00  0.00     0.021 C 
BRANCH  17  18
ATOM     18  N   UNL d   1      56.261  69.199  78.374  0.00  0.00    -0.173 N 
ATOM     19  N   UNL d   1      55.031  68.658  78.502  0.00  0.00    -0.134 NA
ATOM     20  C   UNL d   1      55.262  67.394  78.147  0.00  0.00     0.222 A 
ATOM     21  N   UNL d   1      56.550  67.094  77.802  0.00  0.00    -0.200 NA
ATOM     22  C   UNL d   1      57.160  68.253  77.954  0.00  0.00     0.210 A 
ENDBRANCH  17  18
ENDBRANCH   1  17
TORSDOF 5
ENDMDL
MODEL 14
REMARK VINA RESULT:      -5.3     28.602     30.729
REMARK  5 active torsions:
REMARK  status: ('A' for Active; 'I' for Inactive)
REMARK    1  A    between atoms: C_3  and  C_9 
REMARK    2  A    between atoms: C_9  and  C_10 
REMARK    3  A    between atoms: C_9  and  C_16 
REMARK    4  A    between atoms: C_10  and  N_11 
REMARK    5  A    between atoms: C_16  and  N_17 
ROOT
ATOM      1  C   UNL d   1      80.964  79.391  94.814  0.00  0.00     0.273 C 
ATOM      2  O   UNL d   1      80.420  80.367  94.123  0.00  0.00    -0.193 OA
ENDROOT
BRANCH   1   3
ATOM      3  C   UNL d   1      82.470  79.629  94.868  0.00  0.00     0.058 A 
ATOM      4  C   UNL d   1      83.046  80.635  94.067  0.00  0.00     0.005 A 
ATOM      5  C   UNL d   1      84.408  80.921  94.103  0.00  0.00     0.030 A 
ATOM      6  C   UNL d   1      85.223  80.199  94.961  0.00  0.00     0.142 A 
ATOM      7  C   UNL d   1      84.703  79.204  95.774  0.00  0.00     0.059 A 
ATOM      8  F   UNL d   1      86.538  80.463  95.000  0.00  0.00    -0.204 F 
ATOM      9  C   UNL d   1      83.337  78.929  95.728  0.00  0.00     0.143 A 
ATOM     10  F   UNL d   1      82.884  77.958  96.538  0.00  0.00    -0.204 F 
ENDBRANCH   1   3
BRANCH   1  11
ATOM     11  C   UNL d   1      80.620  78.155  94.112  0.00  0.00     0.021 C 
BRANCH  11  12
ATOM     12  N   UNL d   1      80.374  76.959  93.394  0.00  0.00    -0.173 N 
ATOM     13  C   UNL d   1      81.202  75.866  93.401  0.00  0.00     0.210 A 
ATOM     14  N   UNL d   1      80.694  74.917  92.642  0.00  0.00    -0.200 NA
ATOM     15  C   UNL d   1      79.538  75.488  92.190  0.00  0.00     0.222 A 
ATOM     16  N   UNL d   1      79.293  76.727  92.621  0.00  0.00    -0.134 NA
ENDBRANCH  11  12
ENDBRANCH   1  11
BRANCH   1  17
ATOM     17  C   UNL d   1      80.335  79.397  96.131  0.00  0.00     0.021 C 
BRANCH  17  18
ATOM     18  N   UNL d   1      79.686  79.503  97.385  0.00  0.00    -0.173 N 
ATOM     19  N   UNL d   1      80.149  80.206  98.440  0.00  0.00    -0.134 NA
ATOM     20  C   UNL d   1      79.191  79.986  99.343  0.00  0.00     0.222 A 
ATOM     21  N   UNL d   1      78.154  79.196  98.935  0.00  0.00    -0.200 NA
ATOM     22  C   UNL d   1      78.491  78.905  97.694  0.00  0.00     0.210 A 
ENDBRANCH  17  18
ENDBRANCH   1  17
TORSDOF 5
ENDMDL
MODEL 15
REMARK VINA RESULT:      -5.2     22.825     25.023
REMARK  5 active torsions:
REMARK  status: ('A' for Active; 'I' for Inactive)
REMARK    1  A    between atoms: C_3  and  C_9 
REMARK    2  A    between atoms: C_9  and  C_10 
REMARK    3  A    between atoms: C_9  and  C_16 
REMARK    4  A    between atoms: C_10  and  N_11 
REMARK    5  A    between atoms: C_16  and  N_17 
ROOT
ATOM      1  C   UNL d   1      78.387  67.443  90.385  0.00  0.00     0.273 C 
ATOM      2  O   UNL d   1      79.511  68.102  90.552  0.00  0.00    -0.193 OA
ENDROOT
BRANCH   1   3
ATOM      3  C   UNL d   1      78.723  65.964  90.219  0.00  0.00     0.058 A 
ATOM      4  C   UNL d   1      78.512  65.077  91.293  0.00  0.00     0.005 A 
ATOM      5  C   UNL d   1      78.765  63.712  91.187  0.00  0.00     0.030 A 
ATOM      6  C   UNL d   1      79.231  63.208  89.982  0.00  0.00     0.142 A 
ATOM      7  C   UNL d   1      79.447  64.039  88.894  0.00  0.00     0.059 A 
ATOM      8  F   UNL d   1      79.482  61.894  89.870  0.00  0.00    -0.204 F 
ATOM      9  C   UNL d   1      79.189  65.404  89.015  0.00  0.00     0.143 A 
ATOM     10  F   UNL d   1      79.412  66.164  87.931  0.00  0.00    -0.204 F 
ENDBRANCH   1   3
BRANCH   1  11
ATOM     11  C   UNL d   1      77.758  68.009  89.192  0.00  0.00     0.021 C 
BRANCH  11  12
ATOM     12  N   UNL d   1      77.067  68.515  88.064  0.00  0.00    -0.173 N 
ATOM     13  C   UNL d   1      77.491  68.375  86.767  0.00  0.00     0.210 A 
ATOM     14  N   UNL d   1      76.631  68.949  85.951  0.00  0.00    -0.200 NA
ATOM     15  C   UNL d   1      75.686  69.430  86.812  0.00  0.00     0.222 A 
ATOM     16  N   UNL d   1      75.900  69.190  88.107  0.00  0.00    -0.134 NA
ENDBRANCH  11  12
ENDBRANCH   1  11
BRANCH   1  17
ATOM     17  C   UNL d   1      77.555  67.715  91.553  0.00  0.00     0.021 C 
BRANCH  17  18
ATOM     18  N   UNL d   1      76.838  68.014  92.737  0.00  0.00    -0.173 N 
ATOM     19  N   UNL d   1      75.776  68.844  92.811  0.00  0.00    -0.134 NA
ATOM     20  C   UNL d   1      75.481  68.779  94.110  0.00  0.00     0.222 A 
ATOM     21  N   UNL d   1      76.280  67.966  94.865  0.00  0.00    -0.200 NA
ATOM     22  C   UNL d   1      77.128  67.496  93.973  0.00  0.00     0.210 A 
ENDBRANCH  17  18
ENDBRANCH   1  17
TORSDOF 5
ENDMDL
MODEL 16
REMARK VINA RESULT:      -5.1     23.040     24.455
REMARK  5 active torsions:
REMARK  status: ('A' for Active; 'I' for Inactive)
REMARK    1  A    between atoms: C_3  and  C_9 
REMARK    2  A    between atoms: C_9  and  C_10 
REMARK    3  A    between atoms: C_9  and  C_16 
REMARK    4  A    between atoms: C_10  and  N_11 
REMARK    5  A    between atoms: C_16  and  N_17 
ROOT
ATOM      1  C   UNL d   1      76.381  69.417  90.926  0.00  0.00     0.273 C 
ATOM      2  O   UNL d   1      75.073  69.539  90.875  0.00  0.00    -0.193 OA
ENDROOT
BRANCH   1   3
ATOM      3  C   UNL d   1      76.861  68.883  89.580  0.00  0.00     0.058 A 
ATOM      4  C   UNL d   1      77.729  67.773  89.541  0.00  0.00     0.005 A 
ATOM      5  C   UNL d   1      78.170  67.219  88.342  0.00  0.00     0.030 A 
ATOM      6  C   UNL d   1      77.734  67.773  87.148  0.00  0.00     0.142 A 
ATOM      7  C   UNL d   1      76.875  68.860  87.134  0.00  0.00     0.059 A 
ATOM      8  F   UNL d   1      78.156  67.250  85.986  0.00  0.00    -0.204 F 
ATOM      9  C   UNL d   1      76.441  69.403  88.343  0.00  0.00     0.143 A 
ATOM     10  F   UNL d   1      75.608  70.454  88.273  0.00  0.00    -0.204 F 
ENDBRANCH   1   3
BRANCH   1  11
ATOM     11  C   UNL d   1      76.660  68.493  92.025  0.00  0.00     0.021 C 
BRANCH  11  12
ATOM     12  N   UNL d   1      76.995  67.661  93.121  0.00  0.00    -0.173 N 
ATOM     13  C   UNL d   1      77.759  66.525  93.028  0.00  0.00     0.210 A 
ATOM     14  N   UNL d   1      77.893  65.979  94.219  0.00  0.00    -0.200 NA
ATOM     15  C   UNL d   1      77.184  66.833  95.016  0.00  0.00     0.222 A 
ATOM     16  N   UNL d   1      76.621  67.874  94.399  0.00  0.00    -0.134 NA
ENDBRANCH  11  12
ENDBRANCH   1  11
BRANCH   1  17
ATOM     17  C   UNL d   1      76.920  70.735  91.245  0.00  0.00     0.021 C 
BRANCH  17  18
ATOM     18  N   UNL d   1      77.522  71.995  91.481  0.00  0.00    -0.173 N 
ATOM     19  N   UNL d   1      78.712  72.391  90.982  0.00  0.00    -0.134 NA
ATOM     20  C   UNL d   1      78.814  73.620  91.489  0.00  0.00     0.222 A 
ATOM     21  N   UNL d   1      77.773  74.033  92.273  0.00  0.00    -0.200 NA
ATOM     22  C   UNL d   1      76.971  72.987  92.251  0.00  0.00     0.210 A 
ENDBRANCH  17  18
ENDBRANCH   1  17
TORSDOF 5
ENDMDL
MODEL 17
REMARK VINA RESULT:      -5.1     19.650     21.920
REMARK  5 active torsions:
REMARK  status: ('A' for Active; 'I' for Inactive)
REMARK    1  A    between atoms: C_3  and  C_9 
REMARK    2  A    between atoms: C_9  and  C_10 
REMARK    3  A    between atoms: C_9  and  C_16 
REMARK    4  A    between atoms: C_10  and  N_11 
REMARK    5  A    between atoms: C_16  and  N_17 
ROOT
ATOM      1  C   UNL d   1      62.154  87.705  93.304  0.00  0.00     0.273 C 
ATOM      2  O   UNL d   1      61.982  87.242  94.522  0.00  0.00    -0.193 OA
ENDROOT
BRANCH   1   3
ATOM      3  C   UNL d   1      60.782  88.031  92.721  0.00  0.00     0.058 A 
ATOM      4  C   UNL d   1      60.472  87.634  91.405  0.00  0.00     0.005 A 
ATOM      5  C   UNL d   1      59.224  87.871  90.834  0.00  0.00     0.030 A 
ATOM      6  C   UNL d   1      58.252  88.510  91.589  0.00  0.00     0.142 A 
ATOM      7  C   UNL d   1      58.506  88.912  92.891  0.00  0.00     0.059 A 
ATOM      8  F   UNL d   1      57.047  88.747  91.047  0.00  0.00    -0.204 F 
ATOM      9  C   UNL d   1      59.760  88.668  93.449  0.00  0.00     0.143 A 
ATOM     10  F   UNL d   1      59.952  89.076  94.714  0.00  0.00    -0.204 F 
ENDBRANCH   1   3
BRANCH   1  11
ATOM     11  C   UNL d   1      62.838  86.648  92.560  0.00  0.00     0.021 C 
BRANCH  11  12
ATOM     12  N   UNL d   1      63.470  85.563  91.905  0.00  0.00    -0.173 N 
ATOM     13  C   UNL d   1      62.805  84.536  91.285  0.00  0.00     0.210 A 
ATOM     14  N   UNL d   1      63.672  83.690  90.768  0.00  0.00    -0.200 NA
ATOM     15  C   UNL d   1      64.870  84.255  91.103  0.00  0.00     0.222 A 
ATOM     16  N   UNL d   1      64.804  85.397  91.791  0.00  0.00    -0.134 NA
ENDBRANCH  11  12
ENDBRANCH   1  11
BRANCH   1  17
ATOM     17  C   UNL d   1      63.023  88.872  93.410  0.00  0.00     0.021 C 
BRANCH  17  18
ATOM     18  N   UNL d   1      63.953  89.937  93.496  0.00  0.00    -0.173 N 
ATOM     19  N   UNL d   1      65.124  89.891  94.165  0.00  0.00    -0.134 NA
ATOM     20  C   UNL d   1      65.605  91.114  93.936  0.00  0.00     0.222 A 
ATOM     21  N   UNL d   1      64.823  91.932  93.170  0.00  0.00    -0.200 NA
ATOM     22  C   UNL d   1      63.785  91.164  92.905  0.00  0.00     0.210 A 
ENDBRANCH  17  18
ENDBRANCH   1  17
TORSDOF 5
ENDMDL
MODEL 18
REMARK VINA RESULT:      -5.1     21.134     23.648
REMARK  5 active torsions:
REMARK  status: ('A' for Active; 'I' for Inactive)
REMARK    1  A    between atoms: C_3  and  C_9 
REMARK    2  A    between atoms: C_9  and  C_10 
REMARK    3  A    between atoms: C_9  and  C_16 
REMARK    4  A    between atoms: C_10  and  N_11 
REMARK    5  A    between atoms: C_16  and  N_17 
ROOT
ATOM      1  C   UNL d   1      63.318  89.660  93.002  0.00  0.00     0.273 C 
ATOM      2  O   UNL d   1      63.225  90.563  92.052  0.00  0.00    -0.193 OA
ENDROOT
BRANCH   1   3
ATOM      3  C   UNL d   1      64.178  88.511  92.484  0.00  0.00     0.058 A 
ATOM      4  C   UNL d   1      65.413  88.232  93.102  0.00  0.00     0.005 A 
ATOM      5  C   UNL d   1      66.222  87.174  92.696  0.00  0.00     0.030 A 
ATOM      6  C   UNL d   1      65.794  86.363  91.656  0.00  0.00     0.142 A 
ATOM      7  C   UNL d   1      64.583  86.593  91.021  0.00  0.00     0.059 A 
ATOM      8  F   UNL d   1      66.568  85.343  91.254  0.00  0.00    -0.204 F 
ATOM      9  C   UNL d   1      63.784  87.656  91.439  0.00  0.00     0.143 A 
ATOM     10  F   UNL d   1      62.620  87.832  90.792  0.00  0.00    -0.204 F 
ENDBRANCH   1   3
BRANCH   1  11
ATOM     11  C   UNL d   1      61.948  89.241  93.298  0.00  0.00     0.021 C 
BRANCH  11  12
ATOM     12  N   UNL d   1      60.595  88.877  93.505  0.00  0.00    -0.173 N 
ATOM     13  C   UNL d   1      59.904  87.983  92.727  0.00  0.00     0.210 A 
ATOM     14  N   UNL d   1      58.673  87.857  93.178  0.00  0.00    -0.200 NA
ATOM     15  C   UNL d   1      58.664  88.705  94.249  0.00  0.00     0.222 A 
ATOM     16  N   UNL d   1      59.808  89.347  94.495  0.00  0.00    -0.134 NA
ENDBRANCH  11  12
ENDBRANCH   1  11
BRANCH   1  17
ATOM     17  C   UNL d   1      63.890  90.324  94.169  0.00  0.00     0.021 C 
BRANCH  17  18
ATOM     18  N   UNL d   1      64.416  90.881  95.360  0.00  0.00    -0.173 N 
ATOM     19  N   UNL d   1      63.677  91.332  96.396  0.00  0.00    -0.134 NA
ATOM     20  C   UNL d   1      64.628  91.740  97.238  0.00  0.00     0.222 A 
ATOM     21  N   UNL d   1      65.916  91.579  96.811  0.00  0.00    -0.200 NA
ATOM     22  C   UNL d   1      65.753  91.034  95.622  0.00  0.00     0.210 A 
ENDBRANCH  17  18
ENDBRANCH   1  17
TORSDOF 5
ENDMDL
MODEL 19
REMARK VINA RESULT:      -5.0     29.744     31.943
REMARK  5 active torsions:
REMARK  status: ('A' for Active; 'I' for Inactive)
REMARK    1  A    between atoms: C_3  and  C_9 
REMARK    2  A    between atoms: C_9  and  C_10 
REMARK    3  A    between atoms: C_9  and  C_16 
REMARK    4  A    between atoms: C_10  and  N_11 
REMARK    5  A    between atoms: C_16  and  N_17 
ROOT
ATOM      1  C   UNL d   1      83.534  76.552  95.273  0.00  0.00     0.273 C 
ATOM      2  O   UNL d   1      84.379  75.548  95.219  0.00  0.00    -0.193 OA
ENDROOT
BRANCH   1   3
ATOM      3  C   UNL d   1      84.332  77.850  95.186  0.00  0.00     0.058 A 
ATOM      4  C   UNL d   1      83.864  78.902  94.374  0.00  0.00     0.005 A 
ATOM      5  C   UNL d   1      84.531  80.122  94.285  0.00  0.00     0.030 A 
ATOM      6  C   UNL d   1      85.687  80.310  95.026  0.00  0.00     0.142 A 
ATOM      7  C   UNL d   1      86.183  79.307  95.845  0.00  0.00     0.059 A 
ATOM      8  F   UNL d   1      86.340  81.479  94.944  0.00  0.00    -0.204 F 
ATOM      9  C   UNL d   1      85.505  78.092  95.924  0.00  0.00     0.143 A 
ATOM     10  F   UNL d   1      86.027  77.156  96.734  0.00  0.00    -0.204 F 
ENDBRANCH   1   3
BRANCH   1  11
ATOM     11  C   UNL d   1      82.825  76.419  96.545  0.00  0.00     0.021 C 
BRANCH  11  12
ATOM     12  N   UNL d   1      82.109  76.204  97.748  0.00  0.00    -0.173 N 
ATOM     13  C   UNL d   1      82.077  75.015  98.431  0.00  0.00     0.210 A 
ATOM     14  N   UNL d   1      81.331  75.139  99.509  0.00  0.00    -0.200 NA
ATOM     15  C   UNL d   1      80.926  76.442  99.438  0.00  0.00     0.222 A 
ATOM     16  N   UNL d   1      81.374  77.136  98.390  0.00  0.00    -0.134 NA
ENDBRANCH  11  12
ENDBRANCH   1  11
BRANCH   1  17
ATOM     17  C   UNL d   1      82.596  76.381  94.169  0.00  0.00     0.021 C 
BRANCH  17  18
ATOM     18  N   UNL d   1      81.771  76.188  93.034  0.00  0.00    -0.173 N 
ATOM     19  N   UNL d   1      82.119  75.489  91.932  0.00  0.00    -0.134 NA
ATOM     20  C   UNL d   1      81.019  75.609  91.187  0.00  0.00     0.222 A 
ATOM     21  N   UNL d   1      79.998  76.332  91.737  0.00  0.00    -0.200 NA
ATOM     22  C   UNL d   1      80.500  76.686  92.904  0.00  0.00     0.210 A 
ENDBRANCH  17  18
ENDBRANCH   1  17
TORSDOF 5
ENDMDL
MODEL 20
REMARK VINA RESULT:      -5.0     20.116     22.727
REMARK  5 active torsions:
REMARK  status: ('A' for Active; 'I' for Inactive)
REMARK    1  A    between atoms: C_3  and  C_9 
REMARK    2  A    between atoms: C_9  and  C_10 
REMARK    3  A    between atoms: C_9  and  C_16 
REMARK    4  A    between atoms: C_10  and  N_11 
REMARK    5  A    between atoms: C_16  and  N_17 
ROOT
ATOM      1  C   UNL d   1      61.442  88.708  93.534  0.00  0.00     0.273 C 
ATOM      2  O   UNL d   1      60.466  89.585  93.597  0.00  0.00    -0.193 OA
ENDROOT
BRANCH   1   3
ATOM      3  C   UNL d   1      61.219  87.669  94.630  0.00  0.00     0.058 A 
ATOM      4  C   UNL d   1      60.987  86.325  94.278  0.00  0.00     0.005 A 
ATOM      5  C   UNL d   1      60.814  85.328  95.235  0.00  0.00     0.030 A 
ATOM      6  C   UNL d   1      60.882  85.668  96.577  0.00  0.00     0.142 A 
ATOM      7  C   UNL d   1      61.116  86.975  96.973  0.00  0.00     0.059 A 
ATOM      8  F   UNL d   1      60.713  84.716  97.508  0.00  0.00    -0.204 F 
ATOM      9  C   UNL d   1      61.287  87.963  96.004  0.00  0.00     0.143 A 
ATOM     10  F   UNL d   1      61.514  89.212  96.442  0.00  0.00    -0.204 F 
ENDBRANCH   1   3
BRANCH   1  11
ATOM     11  C   UNL d   1      62.679  89.463  93.726  0.00  0.00     0.021 C 
BRANCH  11  12
ATOM     12  N   UNL d   1      63.865  90.232  93.826  0.00  0.00    -0.173 N 
ATOM     13  C   UNL d   1      64.094  91.397  93.139  0.00  0.00     0.210 A 
ATOM     14  N   UNL d   1      65.282  91.872  93.451  0.00  0.00    -0.200 NA
ATOM     15  C   UNL d   1      65.743  90.949  94.346  0.00  0.00     0.222 A 
ATOM     16  N   UNL d   1      64.919  89.934  94.613  0.00  0.00    -0.134 NA
ENDBRANCH  11  12
ENDBRANCH   1  11
BRANCH   1  17
ATOM     17  C   UNL d   1      61.419  88.138  92.191  0.00  0.00     0.021 C 
BRANCH  17  18
ATOM     18  N   UNL d   1      61.287  87.589  90.893  0.00  0.00    -0.173 N 
ATOM     19  N   UNL d   1      61.168  88.306  89.755  0.00  0.00    -0.134 NA
ATOM     20  C   UNL d   1      61.079  87.339  88.842  0.00  0.00     0.222 A 
ATOM     21  N   UNL d   1      61.134  86.058  89.318  0.00  0.00    -0.200 NA
ATOM     22  C   UNL d   1      61.267  86.245  90.616  0.00  0.00     0.210 A 
ENDBRANCH  17  18
ENDBRANCH   1  17
TORSDOF 5
ENDMDL
