MODEL 1
REMARK VINA RESULT:      -6.3      0.000      0.000
REMARK  7 active torsions:
REMARK  status: ('A' for Active; 'I' for Inactive)
REMARK    1  A    between atoms: N_2  and  C_3 
REMARK    2  A    between atoms: C_3  and  C_4 
REMARK    3  A    between atoms: C_4  and  C_5 
REMARK    4  A    between atoms: C_5  and  O_6 
REMARK    5  A    between atoms: C_5  and  C_17 
REMARK    6  A    between atoms: O_6  and  C_7 
REMARK    7  A    between atoms: C_10  and  C_13 
ROOT
ATOM      1  C   UNL d   1      76.302  72.971  89.552  0.00  0.00     0.142 C 
ENDROOT
BRANCH   1   2
ATOM      2  C   UNL d   1      75.099  72.978  90.310  0.00  0.00    -0.022 C 
BRANCH   2   3
ATOM      3  C   UNL d   1      73.782  73.045  91.094  0.00  0.00     0.008 C 
BRANCH   3   4
ATOM      4  N   UNL d   1      72.532  73.130  91.830  0.00  0.00    -0.144 NA
ATOM      5  C   UNL d   1      71.820  74.322  91.394  0.00  0.00     0.124 C 
ENDBRANCH   3   4
ENDBRANCH   2   3
ENDBRANCH   1   2
BRANCH   1   6
ATOM      6  O   UNL d   1      76.294  72.254  88.362  0.00  0.00    -0.299 OA
BRANCH   6   7
ATOM      7  C   UNL d   1      76.638  70.923  88.400  0.00  0.00     0.101 A 
ATOM      8  C   UNL d   1      76.199  70.140  87.335  0.00  0.00     0.025 A 
ATOM      9  C   UNL d   1      76.530  68.788  87.286  0.00  0.00     0.006 A 
ATOM     10  C   UNL d   1      77.296  68.209  88.300  0.00  0.00     0.072 A 
ATOM     11  C   UNL d   1      77.690  68.991  89.388  0.00  0.00     0.006 A 
ATOM     12  C   UNL d   1      77.360  70.343  89.443  0.00  0.00     0.025 A 
BRANCH  10  13
ATOM     13  C   UNL d   1      77.655  66.759  88.246  0.00  0.00     0.419 C 
ATOM     14  F   UNL d   1      78.783  66.508  87.521  0.00  0.00    -0.166 F 
ATOM     15  F   UNL d   1      77.886  66.218  89.475  0.00  0.00    -0.166 F 
ATOM     16  F   UNL d   1      76.677  65.998  87.681  0.00  0.00    -0.166 F 
ENDBRANCH  10  13
ENDBRANCH   6   7
ENDBRANCH   1   6
BRANCH   1  17
ATOM     17  C   UNL d   1      77.339  73.995  89.759  0.00  0.00     0.031 A 
ATOM     18  C   UNL d   1      77.143  75.067  90.637  0.00  0.00     0.003 A 
ATOM     19  C   UNL d   1      78.128  76.034  90.815  0.00  0.00     0.000 A 
ATOM     20  C   UNL d   1      79.329  75.938  90.117  0.00  0.00     0.000 A 
ATOM     21  C   UNL d   1      79.542  74.875  89.246  0.00  0.00     0.000 A 
ATOM     22  C   UNL d   1      78.552  73.910  89.071  0.00  0.00     0.003 A 
ENDBRANCH   1  17
TORSDOF 7
ENDMDL
MODEL 2
REMARK VINA RESULT:      -6.1     11.877     13.274
REMARK  7 active torsions:
REMARK  status: ('A' for Active; 'I' for Inactive)
REMARK    1  A    between atoms: N_2  and  C_3 
REMARK    2  A    between atoms: C_3  and  C_4 
REMARK    3  A    between atoms: C_4  and  C_5 
REMARK    4  A    between atoms: C_5  and  O_6 
REMARK    5  A    between atoms: C_5  and  C_17 
REMARK    6  A    between atoms: O_6  and  C_7 
REMARK    7  A    between atoms: C_10  and  C_13 
ROOT
ATOM      1  C   UNL d   1      78.778  80.640  95.833  0.00  0.00     0.142 C 
ENDROOT
BRANCH   1   2
ATOM      2  C   UNL d   1      78.269  80.412  97.141  0.00  0.00    -0.022 C 
BRANCH   2   3
ATOM      3  C   UNL d   1      77.710  80.235  98.559  0.00  0.00     0.008 C 
BRANCH   3   4
ATOM      4  N   UNL d   1      77.163  80.060  99.894  0.00  0.00    -0.144 NA
ATOM      5  C   UNL d   1      75.863  80.712  99.948  0.00  0.00     0.124 C 
ENDBRANCH   3   4
ENDBRANCH   2   3
ENDBRANCH   1   2
BRANCH   1   6
ATOM      6  O   UNL d   1      79.849  79.855  95.425  0.00  0.00    -0.299 OA
BRANCH   6   7
ATOM      7  C   UNL d   1      81.123  80.304  95.684  0.00  0.00     0.101 A 
ATOM      8  C   UNL d   1      82.099  79.327  95.858  0.00  0.00     0.025 A 
ATOM      9  C   UNL d   1      83.420  79.701  96.096  0.00  0.00     0.006 A 
ATOM     10  C   UNL d   1      83.773  81.051  96.166  0.00  0.00     0.072 A 
ATOM     11  C   UNL d   1      82.777  82.023  96.039  0.00  0.00     0.006 A 
ATOM     12  C   UNL d   1      81.455  81.653  95.802  0.00  0.00     0.025 A 
BRANCH  10  13
ATOM     13  C   UNL d   1      85.190  81.453  96.417  0.00  0.00     0.419 C 
ATOM     14  F   UNL d   1      85.841  80.625  97.283  0.00  0.00    -0.166 F 
ATOM     15  F   UNL d   1      85.951  81.468  95.287  0.00  0.00    -0.166 F 
ATOM     16  F   UNL d   1      85.292  82.702  96.953  0.00  0.00    -0.166 F 
ENDBRANCH  10  13
ENDBRANCH   6   7
ENDBRANCH   1   6
BRANCH   1  17
ATOM     17  C   UNL d   1      77.971  81.329  94.812  0.00  0.00     0.031 A 
ATOM     18  C   UNL d   1      77.174  82.433  95.133  0.00  0.00     0.003 A 
ATOM     19  C   UNL d   1      76.408  83.068  94.159  0.00  0.00     0.000 A 
ATOM     20  C   UNL d   1      76.434  82.607  92.846  0.00  0.00     0.000 A 
ATOM     21  C   UNL d   1      77.227  81.515  92.509  0.00  0.00     0.000 A 
ATOM     22  C   UNL d   1      77.992  80.883  93.488  0.00  0.00     0.003 A 
ENDBRANCH   1  17
TORSDOF 7
ENDMDL
MODEL 3
REMARK VINA RESULT:      -6.0      4.076      6.694
REMARK  7 active torsions:
REMARK  status: ('A' for Active; 'I' for Inactive)
REMARK    1  A    between atoms: N_2  and  C_3 
REMARK    2  A    between atoms: C_3  and  C_4 
REMARK    3  A    between atoms: C_4  and  C_5 
REMARK    4  A    between atoms: C_5  and  O_6 
REMARK    5  A    between atoms: C_5  and  C_17 
REMARK    6  A    between atoms: O_6  and  C_7 
REMARK    7  A    between atoms: C_10  and  C_13 
ROOT
ATOM      1  C   UNL d   1      75.928  69.788  89.226  0.00  0.00     0.142 C 
ENDROOT
BRANCH   1   2
ATOM      2  C   UNL d   1      75.739  69.658  90.629  0.00  0.00    -0.022 C 
BRANCH   2   3
ATOM      3  C   UNL d   1      75.539  69.448  92.136  0.00  0.00     0.008 C 
BRANCH   3   4
ATOM      4  N   UNL d   1      75.357  69.228  93.561  0.00  0.00    -0.144 NA
ATOM      5  C   UNL d   1      76.366  68.283  94.014  0.00  0.00     0.124 C 
ENDBRANCH   3   4
ENDBRANCH   2   3
ENDBRANCH   1   2
BRANCH   1   6
ATOM      6  O   UNL d   1      75.674  71.033  88.667  0.00  0.00    -0.299 OA
BRANCH   6   7
ATOM      7  C   UNL d   1      76.433  72.102  89.082  0.00  0.00     0.101 A 
ATOM      8  C   UNL d   1      77.725  72.181  88.566  0.00  0.00     0.025 A 
ATOM      9  C   UNL d   1      78.547  73.249  88.918  0.00  0.00     0.006 A 
ATOM     10  C   UNL d   1      78.088  74.242  89.787  0.00  0.00     0.072 A 
ATOM     11  C   UNL d   1      76.809  74.127  90.337  0.00  0.00     0.006 A 
ATOM     12  C   UNL d   1      75.983  73.060  89.990  0.00  0.00     0.025 A 
BRANCH  10  13
ATOM     13  C   UNL d   1      78.967  75.390  90.161  0.00  0.00     0.419 C 
ATOM     14  F   UNL d   1      79.734  75.843  89.127  0.00  0.00    -0.166 F 
ATOM     15  F   UNL d   1      78.273  76.477  90.600  0.00  0.00    -0.166 F 
ATOM     16  F   UNL d   1      79.841  75.078  91.158  0.00  0.00    -0.166 F 
ENDBRANCH  10  13
ENDBRANCH   6   7
ENDBRANCH   1   6
BRANCH   1  17
ATOM     17  C   UNL d   1      76.753  68.825  88.477  0.00  0.00     0.031 A 
ATOM     18  C   UNL d   1      76.831  68.859  87.081  0.00  0.00     0.003 A 
ATOM     19  C   UNL d   1      77.608  67.936  86.387  0.00  0.00     0.000 A 
ATOM     20  C   UNL d   1      78.322  66.965  87.083  0.00  0.00     0.000 A 
ATOM     21  C   UNL d   1      78.260  66.922  88.472  0.00  0.00     0.000 A 
ATOM     22  C   UNL d   1      77.481  67.849  89.163  0.00  0.00     0.003 A 
ENDBRANCH   1  17
TORSDOF 7
ENDMDL
MODEL 4
REMARK VINA RESULT:      -6.0     11.445     12.740
REMARK  7 active torsions:
REMARK  status: ('A' for Active; 'I' for Inactive)
REMARK    1  A    between atoms: N_2  and  C_3 
REMARK    2  A    between atoms: C_3  and  C_4 
REMARK    3  A    between atoms: C_4  and  C_5 
REMARK    4  A    between atoms: C_5  and  O_6 
REMARK    5  A    between atoms: C_5  and  C_17 
REMARK    6  A    between atoms: O_6  and  C_7 
REMARK    7  A    between atoms: C_10  and  C_13 
ROOT
ATOM      1  C   UNL d   1      79.434  79.851  94.927  0.00  0.00     0.142 C 
ENDROOT
BRANCH   1   2
ATOM      2  C   UNL d   1      78.597  80.500  93.978  0.00  0.00    -0.022 C 
BRANCH   2   3
ATOM      3  C   UNL d   1      77.669  81.137  92.935  0.00  0.00     0.008 C 
BRANCH   3   4
ATOM      4  N   UNL d   1      76.778  81.747  91.963  0.00  0.00    -0.144 NA
ATOM      5  C   UNL d   1      76.566  83.136  92.341  0.00  0.00     0.124 C 
ENDBRANCH   3   4
ENDBRANCH   2   3
ENDBRANCH   1   2
BRANCH   1   6
ATOM      6  O   UNL d   1      80.421  79.012  94.428  0.00  0.00    -0.299 OA
BRANCH   6   7
ATOM      7  C   UNL d   1      81.736  79.351  94.645  0.00  0.00     0.101 A 
ATOM      8  C   UNL d   1      82.267  80.336  93.816  0.00  0.00     0.025 A 
ATOM      9  C   UNL d   1      83.584  80.754  93.991  0.00  0.00     0.006 A 
ATOM     10  C   UNL d   1      84.380  80.190  94.992  0.00  0.00     0.072 A 
ATOM     11  C   UNL d   1      83.854  79.168  95.786  0.00  0.00     0.006 A 
ATOM     12  C   UNL d   1      82.537  78.746  95.614  0.00  0.00     0.025 A 
BRANCH  10  13
ATOM     13  C   UNL d   1      85.791  80.641  95.183  0.00  0.00     0.419 C 
ATOM     14  F   UNL d   1      86.675  79.611  95.313  0.00  0.00    -0.166 F 
ATOM     15  F   UNL d   1      86.259  81.392  94.147  0.00  0.00    -0.166 F 
ATOM     16  F   UNL d   1      85.950  81.406  96.300  0.00  0.00    -0.166 F 
ENDBRANCH  10  13
ENDBRANCH   6   7
ENDBRANCH   1   6
BRANCH   1  17
ATOM     17  C   UNL d   1      79.557  80.356  96.304  0.00  0.00     0.031 A 
ATOM     18  C   UNL d   1      79.330  79.530  97.410  0.00  0.00     0.003 A 
ATOM     19  C   UNL d   1      79.440  80.025  98.706  0.00  0.00     0.000 A 
ATOM     20  C   UNL d   1      79.784  81.357  98.914  0.00  0.00     0.000 A 
ATOM     21  C   UNL d   1      80.020  82.190  97.825  0.00  0.00     0.000 A 
ATOM     22  C   UNL d   1      79.909  81.690  96.529  0.00  0.00     0.003 A 
ENDBRANCH   1  17
TORSDOF 7
ENDMDL
MODEL 5
REMARK VINA RESULT:      -5.8      9.798     12.932
REMARK  7 active torsions:
REMARK  status: ('A' for Active; 'I' for Inactive)
REMARK    1  A    between atoms: N_2  and  C_3 
REMARK    2  A    between atoms: C_3  and  C_4 
REMARK    3  A    between atoms: C_4  and  C_5 
REMARK    4  A    between atoms: C_5  and  O_6 
REMARK    5  A    between atoms: C_5  and  C_17 
REMARK    6  A    between atoms: O_6  and  C_7 
REMARK    7  A    between atoms: C_10  and  C_13 
ROOT
ATOM      1  C   UNL d   1      82.750  79.343  93.503  0.00  0.00     0.142 C 
ENDROOT
BRANCH   1   2
ATOM      2  C   UNL d   1      82.500  78.113  92.836  0.00  0.00    -0.022 C 
BRANCH   2   3
ATOM      3  C   UNL d   1      82.164  76.784  92.145  0.00  0.00     0.008 C 
BRANCH   3   4
ATOM      4  N   UNL d   1      81.825  75.529  91.496  0.00  0.00    -0.144 NA
ATOM      5  C   UNL d   1      80.462  75.621  90.997  0.00  0.00     0.124 C 
ENDBRANCH   3   4
ENDBRANCH   2   3
ENDBRANCH   1   2
BRANCH   1   6
ATOM      6  O   UNL d   1      81.664  80.184  93.706  0.00  0.00    -0.299 OA
BRANCH   6   7
ATOM      7  C   UNL d   1      81.130  80.268  94.971  0.00  0.00     0.101 A 
ATOM      8  C   UNL d   1      81.286  81.485  95.629  0.00  0.00     0.025 A 
ATOM      9  C   UNL d   1      80.750  81.658  96.903  0.00  0.00     0.006 A 
ATOM     10  C   UNL d   1      80.058  80.618  97.528  0.00  0.00     0.072 A 
ATOM     11  C   UNL d   1      79.949  79.385  96.879  0.00  0.00     0.006 A 
ATOM     12  C   UNL d   1      80.485  79.207  95.606  0.00  0.00     0.025 A 
BRANCH  10  13
ATOM     13  C   UNL d   1      79.478  80.804  98.892  0.00  0.00     0.419 C 
ATOM     14  F   UNL d   1      80.228  81.614  99.693  0.00  0.00    -0.166 F 
ATOM     15  F   UNL d   1      78.235  81.362  98.875  0.00  0.00    -0.166 F 
ATOM     16  F   UNL d   1      79.350  79.630  99.572  0.00  0.00    -0.166 F 
ENDBRANCH  10  13
ENDBRANCH   6   7
ENDBRANCH   1   6
BRANCH   1  17
ATOM     17  C   UNL d   1      83.960  79.532  94.320  0.00  0.00     0.031 A 
ATOM     18  C   UNL d   1      84.685  80.728  94.287  0.00  0.00     0.003 A 
ATOM     19  C   UNL d   1      85.834  80.888  95.058  0.00  0.00     0.000 A 
ATOM     20  C   UNL d   1      86.270  79.852  95.877  0.00  0.00     0.000 A 
ATOM     21  C   UNL d   1      85.556  78.659  95.927  0.00  0.00     0.000 A 
ATOM     22  C   UNL d   1      84.408  78.504  95.154  0.00  0.00     0.003 A 
ENDBRANCH   1  17
TORSDOF 7
ENDMDL
MODEL 6
REMARK VINA RESULT:      -5.7      2.331      4.383
REMARK  7 active torsions:
REMARK  status: ('A' for Active; 'I' for Inactive)
REMARK    1  A    between atoms: N_2  and  C_3 
REMARK    2  A    between atoms: C_3  and  C_4 
REMARK    3  A    between atoms: C_4  and  C_5 
REMARK    4  A    between atoms: C_5  and  O_6 
REMARK    5  A    between atoms: C_5  and  C_17 
REMARK    6  A    between atoms: O_6  and  C_7 
REMARK    7  A    between atoms: C_10  and  C_13 
ROOT
ATOM      1  C   UNL d   1      75.914  73.777  90.673  0.00  0.00     0.142 C 
ENDROOT
BRANCH   1   2
ATOM      2  C   UNL d   1      77.123  74.524  90.652  0.00  0.00    -0.022 C 
BRANCH   2   3
ATOM      3  C   UNL d   1      78.464  75.270  90.621  0.00  0.00     0.008 C 
BRANCH   3   4
ATOM      4  N   UNL d   1      79.738  75.968  90.573  0.00  0.00    -0.144 NA
ATOM      5  C   UNL d   1      80.226  76.131  91.933  0.00  0.00     0.124 C 
ENDBRANCH   3   4
ENDBRANCH   2   3
ENDBRANCH   1   2
BRANCH   1   6
ATOM      6  O   UNL d   1      76.007  72.435  91.019  0.00  0.00    -0.299 OA
BRANCH   6   7
ATOM      7  C   UNL d   1      76.284  71.523  90.028  0.00  0.00     0.101 A 
ATOM      8  C   UNL d   1      76.765  70.284  90.444  0.00  0.00     0.025 A 
ATOM      9  C   UNL d   1      77.043  69.297  89.502  0.00  0.00     0.006 A 
ATOM     10  C   UNL d   1      76.846  69.540  88.141  0.00  0.00     0.072 A 
ATOM     11  C   UNL d   1      76.410  70.802  87.730  0.00  0.00     0.006 A 
ATOM     12  C   UNL d   1      76.132  71.793  88.669  0.00  0.00     0.025 A 
BRANCH  10  13
ATOM     13  C   UNL d   1      77.140  68.479  87.129  0.00  0.00     0.419 C 
ATOM     14  F   UNL d   1      76.644  68.762  85.890  0.00  0.00    -0.166 F 
ATOM     15  F   UNL d   1      78.473  68.267  86.947  0.00  0.00    -0.166 F 
ATOM     16  F   UNL d   1      76.612  67.270  87.470  0.00  0.00    -0.166 F 
ENDBRANCH  10  13
ENDBRANCH   6   7
ENDBRANCH   1   6
BRANCH   1  17
ATOM     17  C   UNL d   1      74.607  74.447  90.765  0.00  0.00     0.031 A 
ATOM     18  C   UNL d   1      74.447  75.791  90.410  0.00  0.00     0.003 A 
ATOM     19  C   UNL d   1      73.206  76.414  90.513  0.00  0.00     0.000 A 
ATOM     20  C   UNL d   1      72.105  75.697  90.970  0.00  0.00     0.000 A 
ATOM     21  C   UNL d   1      72.245  74.358  91.321  0.00  0.00     0.000 A 
ATOM     22  C   UNL d   1      73.489  73.739  91.216  0.00  0.00     0.003 A 
ENDBRANCH   1  17
TORSDOF 7
ENDMDL
MODEL 7
REMARK VINA RESULT:      -5.7      5.270      8.780
REMARK  7 active torsions:
REMARK  status: ('A' for Active; 'I' for Inactive)
REMARK    1  A    between atoms: N_2  and  C_3 
REMARK    2  A    between atoms: C_3  and  C_4 
REMARK    3  A    between atoms: C_4  and  C_5 
REMARK    4  A    between atoms: C_5  and  O_6 
REMARK    5  A    between atoms: C_5  and  C_17 
REMARK    6  A    between atoms: O_6  and  C_7 
REMARK    7  A    between atoms: C_10  and  C_13 
ROOT
ATOM      1  C   UNL d   1      78.991  64.703  90.464  0.00  0.00     0.142 C 
ENDROOT
BRANCH   1   2
ATOM      2  C   UNL d   1      78.468  64.842  91.779  0.00  0.00    -0.022 C 
BRANCH   2   3
ATOM      3  C   UNL d   1      77.928  65.058  93.199  0.00  0.00     0.008 C 
BRANCH   3   4
ATOM      4  N   UNL d   1      77.435  65.274  94.549  0.00  0.00    -0.144 NA
ATOM      5  C   UNL d   1      76.831  64.037  95.022  0.00  0.00     0.124 C 
ENDBRANCH   3   4
ENDBRANCH   2   3
ENDBRANCH   1   2
BRANCH   1   6
ATOM      6  O   UNL d   1      79.559  65.832  89.888  0.00  0.00    -0.299 OA
BRANCH   6   7
ATOM      7  C   UNL d   1      78.730  66.732  89.261  0.00  0.00     0.101 A 
ATOM      8  C   UNL d   1      78.518  66.534  87.899  0.00  0.00     0.025 A 
ATOM      9  C   UNL d   1      77.669  67.387  87.198  0.00  0.00     0.006 A 
ATOM     10  C   UNL d   1      77.029  68.444  87.850  0.00  0.00     0.072 A 
ATOM     11  C   UNL d   1      77.286  68.664  89.206  0.00  0.00     0.006 A 
ATOM     12  C   UNL d   1      78.136  67.814  89.911  0.00  0.00     0.025 A 
BRANCH  10  13
ATOM     13  C   UNL d   1      76.115  69.357  87.100  0.00  0.00     0.419 C 
ATOM     14  F   UNL d   1      76.197  69.213  85.746  0.00  0.00    -0.166 F 
ATOM     15  F   UNL d   1      74.800  69.169  87.406  0.00  0.00    -0.166 F 
ATOM     16  F   UNL d   1      76.370  70.673  87.346  0.00  0.00    -0.166 F 
ENDBRANCH  10  13
ENDBRANCH   6   7
ENDBRANCH   1   6
BRANCH   1  17
ATOM     17  C   UNL d   1      79.322  63.379  89.913  0.00  0.00     0.031 A 
ATOM     18  C   UNL d   1      79.271  63.125  88.538  0.00  0.00     0.003 A 
ATOM     19  C   UNL d   1      79.577  61.865  88.032  0.00  0.00     0.000 A 
ATOM     20  C   UNL d   1      79.942  60.839  88.899  0.00  0.00     0.000 A 
ATOM     21  C   UNL d   1      80.004  61.077  90.268  0.00  0.00     0.000 A 
ATOM     22  C   UNL d   1      79.697  62.340  90.769  0.00  0.00     0.003 A 
ENDBRANCH   1  17
TORSDOF 7
ENDMDL
MODEL 8
REMARK VINA RESULT:      -5.6     12.620     16.333
REMARK  7 active torsions:
REMARK  status: ('A' for Active; 'I' for Inactive)
REMARK    1  A    between atoms: N_2  and  C_3 
REMARK    2  A    between atoms: C_3  and  C_4 
REMARK    3  A    between atoms: C_4  and  C_5 
REMARK    4  A    between atoms: C_5  and  O_6 
REMARK    5  A    between atoms: C_5  and  C_17 
REMARK    6  A    between atoms: O_6  and  C_7 
REMARK    7  A    between atoms: C_10  and  C_13 
ROOT
ATOM      1  C   UNL d   1      62.675  72.194  97.401  0.00  0.00     0.142 C 
ENDROOT
BRANCH   1   2
ATOM      2  C   UNL d   1      63.880  71.458  97.234  0.00  0.00    -0.022 C 
BRANCH   2   3
ATOM      3  C   UNL d   1      65.175  70.673  96.982  0.00  0.00     0.008 C 
BRANCH   3   4
ATOM      4  N   UNL d   1      66.412  69.947  96.750  0.00  0.00    -0.144 NA
ATOM      5  C   UNL d   1      67.190  70.668  95.755  0.00  0.00     0.124 C 
ENDBRANCH   3   4
ENDBRANCH   2   3
ENDBRANCH   1   2
BRANCH   1   6
ATOM      6  O   UNL d   1      62.514  73.328  96.616  0.00  0.00    -0.299 OA
BRANCH   6   7
ATOM      7  C   UNL d   1      62.721  73.219  95.262  0.00  0.00     0.101 A 
ATOM      8  C   UNL d   1      64.022  73.440  94.815  0.00  0.00     0.025 A 
ATOM      9  C   UNL d   1      64.318  73.321  93.459  0.00  0.00     0.006 A 
ATOM     10  C   UNL d   1      63.320  72.985  92.541  0.00  0.00     0.072 A 
ATOM     11  C   UNL d   1      62.009  72.814  92.993  0.00  0.00     0.006 A 
ATOM     12  C   UNL d   1      61.707  72.933  94.348  0.00  0.00     0.025 A 
BRANCH  10  13
ATOM     13  C   UNL d   1      63.639  72.853  91.087  0.00  0.00     0.419 C 
ATOM     14  F   UNL d   1      64.311  73.927  90.582  0.00  0.00    -0.166 F 
ATOM     15  F   UNL d   1      64.418  71.772  90.805  0.00  0.00    -0.166 F 
ATOM     16  F   UNL d   1      62.523  72.721  90.317  0.00  0.00    -0.166 F 
ENDBRANCH  10  13
ENDBRANCH   6   7
ENDBRANCH   1   6
BRANCH   1  17
ATOM     17  C   UNL d   1      61.488  71.579  98.017  0.00  0.00     0.031 A 
ATOM     18  C   UNL d   1      60.437  72.357  98.515  0.00  0.00     0.003 A 
ATOM     19  C   UNL d   1      59.325  71.761  99.106  0.00  0.00     0.000 A 
ATOM     20  C   UNL d   1      59.249  70.375  99.201  0.00  0.00     0.000 A 
ATOM     21  C   UNL d   1      60.283  69.587  98.705  0.00  0.00     0.000 A 
ATOM     22  C   UNL d   1      61.393  70.188  98.115  0.00  0.00     0.003 A 
ENDBRANCH   1  17
TORSDOF 7
ENDMDL
MODEL 9
REMARK VINA RESULT:      -5.5      2.216      3.650
REMARK  7 active torsions:
REMARK  status: ('A' for Active; 'I' for Inactive)
REMARK    1  A    between atoms: N_2  and  C_3 
REMARK    2  A    between atoms: C_3  and  C_4 
REMARK    3  A    between atoms: C_4  and  C_5 
REMARK    4  A    between atoms: C_5  and  O_6 
REMARK    5  A    between atoms: C_5  and  C_17 
REMARK    6  A    between atoms: O_6  and  C_7 
REMARK    7  A    between atoms: C_10  and  C_13 
ROOT
ATOM      1  C   UNL d   1      76.411  72.987  90.824  0.00  0.00     0.142 C 
ENDROOT
BRANCH   1   2
ATOM      2  C   UNL d   1      76.530  71.969  91.810  0.00  0.00    -0.022 C 
BRANCH   2   3
ATOM      3  C   UNL d   1      76.630  70.825  92.827  0.00  0.00     0.008 C 
BRANCH   3   4
ATOM      4  N   UNL d   1      76.703  69.742  93.794  0.00  0.00    -0.144 NA
ATOM      5  C   UNL d   1      75.594  68.832  93.552  0.00  0.00     0.124 C 
ENDBRANCH   3   4
ENDBRANCH   2   3
ENDBRANCH   1   2
BRANCH   1   6
ATOM      6  O   UNL d   1      77.159  72.832  89.663  0.00  0.00    -0.299 OA
BRANCH   6   7
ATOM      7  C   UNL d   1      77.272  71.573  89.123  0.00  0.00     0.101 A 
ATOM      8  C   UNL d   1      78.549  71.019  89.106  0.00  0.00     0.025 A 
ATOM      9  C   UNL d   1      78.742  69.736  88.600  0.00  0.00     0.006 A 
ATOM     10  C   UNL d   1      77.663  69.000  88.105  0.00  0.00     0.072 A 
ATOM     11  C   UNL d   1      76.394  69.583  88.081  0.00  0.00     0.006 A 
ATOM     12  C   UNL d   1      76.196  70.867  88.585  0.00  0.00     0.025 A 
BRANCH  10  13
ATOM     13  C   UNL d   1      77.868  67.621  87.566  0.00  0.00     0.419 C 
ATOM     14  F   UNL d   1      76.719  66.889  87.503  0.00  0.00    -0.166 F 
ATOM     15  F   UNL d   1      78.375  67.609  86.302  0.00  0.00    -0.166 F 
ATOM     16  F   UNL d   1      78.732  66.886  88.321  0.00  0.00    -0.166 F 
ENDBRANCH  10  13
ENDBRANCH   6   7
ENDBRANCH   1   6
BRANCH   1  17
ATOM     17  C   UNL d   1      75.261  73.905  90.813  0.00  0.00     0.031 A 
ATOM     18  C   UNL d   1      75.398  75.246  90.437  0.00  0.00     0.003 A 
ATOM     19  C   UNL d   1      74.302  76.105  90.442  0.00  0.00     0.000 A 
ATOM     20  C   UNL d   1      73.050  75.631  90.820  0.00  0.00     0.000 A 
ATOM     21  C   UNL d   1      72.895  74.298  91.189  0.00  0.00     0.000 A 
ATOM     22  C   UNL d   1      73.995  73.443  91.183  0.00  0.00     0.003 A 
ENDBRANCH   1  17
TORSDOF 7
ENDMDL
MODEL 10
REMARK VINA RESULT:      -5.5      8.122     10.747
REMARK  7 active torsions:
REMARK  status: ('A' for Active; 'I' for Inactive)
REMARK    1  A    between atoms: N_2  and  C_3 
REMARK    2  A    between atoms: C_3  and  C_4 
REMARK    3  A    between atoms: C_4  and  C_5 
REMARK    4  A    between atoms: C_5  and  O_6 
REMARK    5  A    between atoms: C_5  and  C_17 
REMARK    6  A    between atoms: O_6  and  C_7 
REMARK    7  A    between atoms: C_10  and  C_13 
ROOT
ATOM      1  C   UNL d   1      82.572  80.231  95.046  0.00  0.00     0.142 C 
ENDROOT
BRANCH   1   2
ATOM      2  C   UNL d   1      81.875  81.151  95.876  0.00  0.00    -0.022 C 
BRANCH   2   3
ATOM      3  C   UNL d   1      81.185  82.167  96.796  0.00  0.00     0.008 C 
BRANCH   3   4
ATOM      4  N   UNL d   1      80.539  83.118  97.685  0.00  0.00    -0.144 NA
ATOM      5  C   UNL d   1      79.153  82.714  97.862  0.00  0.00     0.124 C 
ENDBRANCH   3   4
ENDBRANCH   2   3
ENDBRANCH   1   2
BRANCH   1   6
ATOM      6  O   UNL d   1      82.042  79.990  93.785  0.00  0.00    -0.299 OA
BRANCH   6   7
ATOM      7  C   UNL d   1      81.728  78.695  93.447  0.00  0.00     0.101 A 
ATOM      8  C   UNL d   1      80.555  78.179  93.992  0.00  0.00     0.025 A 
ATOM      9  C   UNL d   1      80.154  76.883  93.675  0.00  0.00     0.006 A 
ATOM     10  C   UNL d   1      80.922  76.094  92.815  0.00  0.00     0.072 A 
ATOM     11  C   UNL d   1      82.122  76.602  92.313  0.00  0.00     0.006 A 
ATOM     12  C   UNL d   1      82.528  77.897  92.628  0.00  0.00     0.025 A 
BRANCH  10  13
ATOM     13  C   UNL d   1      80.491  74.705  92.471  0.00  0.00     0.419 C 
ATOM     14  F   UNL d   1      79.957  74.600  91.220  0.00  0.00    -0.166 F 
ATOM     15  F   UNL d   1      81.510  73.802  92.507  0.00  0.00    -0.166 F 
ATOM     16  F   UNL d   1      79.538  74.227  93.320  0.00  0.00    -0.166 F 
ENDBRANCH  10  13
ENDBRANCH   6   7
ENDBRANCH   1   6
BRANCH   1  17
ATOM     17  C   UNL d   1      83.982  79.894  95.301  0.00  0.00     0.031 A 
ATOM     18  C   UNL d   1      84.343  78.733  95.993  0.00  0.00     0.003 A 
ATOM     19  C   UNL d   1      85.681  78.433  96.237  0.00  0.00     0.000 A 
ATOM     20  C   UNL d   1      86.678  79.292  95.785  0.00  0.00     0.000 A 
ATOM     21  C   UNL d   1      86.337  80.447  95.089  0.00  0.00     0.000 A 
ATOM     22  C   UNL d   1      84.996  80.743  94.848  0.00  0.00     0.003 A 
ENDBRANCH   1  17
TORSDOF 7
ENDMDL
MODEL 11
REMARK VINA RESULT:      -5.5     12.051     13.322
REMARK  7 active torsions:
REMARK  status: ('A' for Active; 'I' for Inactive)
REMARK    1  A    between atoms: N_2  and  C_3 
REMARK    2  A    between atoms: C_3  and  C_4 
REMARK    3  A    between atoms: C_4  and  C_5 
REMARK    4  A    between atoms: C_5  and  O_6 
REMARK    5  A    between atoms: C_5  and  C_17 
REMARK    6  A    between atoms: O_6  and  C_7 
REMARK    7  A    between atoms: C_10  and  C_13 
ROOT
ATOM      1  C   UNL d   1      80.845  77.095  97.806  0.00  0.00     0.142 C 
ENDROOT
BRANCH   1   2
ATOM      2  C   UNL d   1      80.362  78.332  98.315  0.00  0.00    -0.022 C 
BRANCH   2   3
ATOM      3  C   UNL d   1      79.804  79.630  98.912  0.00  0.00     0.008 C 
BRANCH   3   4
ATOM      4  N   UNL d   1      79.287  80.857  99.496  0.00  0.00    -0.144 NA
ATOM      5  C   UNL d   1      79.489  81.940  98.546  0.00  0.00     0.124 C 
ENDBRANCH   3   4
ENDBRANCH   2   3
ENDBRANCH   1   2
BRANCH   1   6
ATOM      6  O   UNL d   1      81.322  77.091  96.502  0.00  0.00    -0.299 OA
BRANCH   6   7
ATOM      7  C   UNL d   1      82.416  77.870  96.205  0.00  0.00     0.101 A 
ATOM      8  C   UNL d   1      82.153  79.179  95.806  0.00  0.00     0.025 A 
ATOM      9  C   UNL d   1      83.209  80.039  95.514  0.00  0.00     0.006 A 
ATOM     10  C   UNL d   1      84.531  79.600  95.616  0.00  0.00     0.072 A 
ATOM     11  C   UNL d   1      84.782  78.272  95.969  0.00  0.00     0.006 A 
ATOM     12  C   UNL d   1      83.730  77.407  96.261  0.00  0.00     0.025 A 
BRANCH  10  13
ATOM     13  C   UNL d   1      85.664  80.524  95.308  0.00  0.00     0.419 C 
ATOM     14  F   UNL d   1      86.881  79.908  95.315  0.00  0.00    -0.166 F 
ATOM     15  F   UNL d   1      85.561  81.109  94.082  0.00  0.00    -0.166 F 
ATOM     16  F   UNL d   1      85.764  81.547  96.202  0.00  0.00    -0.166 F 
ENDBRANCH  10  13
ENDBRANCH   6   7
ENDBRANCH   1   6
BRANCH   1  17
ATOM     17  C   UNL d   1      81.236  76.001  98.710  0.00  0.00     0.031 A 
ATOM     18  C   UNL d   1      82.015  74.927  98.266  0.00  0.00     0.003 A 
ATOM     19  C   UNL d   1      82.367  73.894  99.131  0.00  0.00     0.000 A 
ATOM     20  C   UNL d   1      81.947  73.925 100.457  0.00  0.00     0.000 A 
ATOM     21  C   UNL d   1      81.177  74.989 100.916  0.00  0.00     0.000 A 
ATOM     22  C   UNL d   1      80.827  76.020 100.046  0.00  0.00     0.003 A 
ENDBRANCH   1  17
TORSDOF 7
ENDMDL
MODEL 12
REMARK VINA RESULT:      -5.4      8.938     11.820
REMARK  7 active torsions:
REMARK  status: ('A' for Active; 'I' for Inactive)
REMARK    1  A    between atoms: N_2  and  C_3 
REMARK    2  A    between atoms: C_3  and  C_4 
REMARK    3  A    between atoms: C_4  and  C_5 
REMARK    4  A    between atoms: C_5  and  O_6 
REMARK    5  A    between atoms: C_5  and  C_17 
REMARK    6  A    between atoms: O_6  and  C_7 
REMARK    7  A    between atoms: C_10  and  C_13 
ROOT
ATOM      1  C   UNL d   1      80.587  77.561  93.773  0.00  0.00     0.142 C 
ENDROOT
BRANCH   1   2
ATOM      2  C   UNL d   1      79.825  76.473  93.265  0.00  0.00    -0.022 C 
BRANCH   2   3
ATOM      3  C   UNL d   1      78.999  75.333  92.654  0.00  0.00     0.008 C 
BRANCH   3   4
ATOM      4  N   UNL d   1      78.218  74.263  92.057  0.00  0.00    -0.144 NA
ATOM      5  C   UNL d   1      78.001  74.579  90.654  0.00  0.00     0.124 C 
ENDBRANCH   3   4
ENDBRANCH   2   3
ENDBRANCH   1   2
BRANCH   1   6
ATOM      6  O   UNL d   1      81.531  78.122  92.924  0.00  0.00    -0.299 OA
BRANCH   6   7
ATOM      7  C   UNL d   1      82.589  78.801  93.481  0.00  0.00     0.101 A 
ATOM      8  C   UNL d   1      83.653  78.025  93.934  0.00  0.00     0.025 A 
ATOM      9  C   UNL d   1      84.773  78.641  94.487  0.00  0.00     0.006 A 
ATOM     10  C   UNL d   1      84.838  80.032  94.594  0.00  0.00     0.072 A 
ATOM     11  C   UNL d   1      83.745  80.798  94.182  0.00  0.00     0.006 A 
ATOM     12  C   UNL d   1      82.621  80.187  93.630  0.00  0.00     0.025 A 
BRANCH  10  13
ATOM     13  C   UNL d   1      86.042  80.694  95.183  0.00  0.00     0.419 C 
ATOM     14  F   UNL d   1      86.695  81.508  94.304  0.00  0.00    -0.166 F 
ATOM     15  F   UNL d   1      85.750  81.479  96.258  0.00  0.00    -0.166 F 
ATOM     16  F   UNL d   1      86.972  79.798  95.617  0.00  0.00    -0.166 F 
ENDBRANCH  10  13
ENDBRANCH   6   7
ENDBRANCH   1   6
BRANCH   1  17
ATOM     17  C   UNL d   1      80.122  78.338  94.933  0.00  0.00     0.031 A 
ATOM     18  C   UNL d   1      80.620  78.102  96.219  0.00  0.00     0.003 A 
ATOM     19  C   UNL d   1      80.163  78.838  97.309  0.00  0.00     0.000 A 
ATOM     20  C   UNL d   1      79.201  79.827  97.125  0.00  0.00     0.000 A 
ATOM     21  C   UNL d   1      78.700  80.079  95.851  0.00  0.00     0.000 A 
ATOM     22  C   UNL d   1      79.161  79.339  94.764  0.00  0.00     0.003 A 
ENDBRANCH   1  17
TORSDOF 7
ENDMDL
MODEL 13
REMARK VINA RESULT:      -5.4     20.932     24.082
REMARK  7 active torsions:
REMARK  status: ('A' for Active; 'I' for Inactive)
REMARK    1  A    between atoms: N_2  and  C_3 
REMARK    2  A    between atoms: C_3  and  C_4 
REMARK    3  A    between atoms: C_4  and  C_5 
REMARK    4  A    between atoms: C_5  and  O_6 
REMARK    5  A    between atoms: C_5  and  C_17 
REMARK    6  A    between atoms: O_6  and  C_7 
REMARK    7  A    between atoms: C_10  and  C_13 
ROOT
ATOM      1  C   UNL d   1      71.083  89.031 102.875  0.00  0.00     0.142 C 
ENDROOT
BRANCH   1   2
ATOM      2  C   UNL d   1      72.063  89.355 103.853  0.00  0.00    -0.022 C 
BRANCH   2   3
ATOM      3  C   UNL d   1      73.139  89.761 104.869  0.00  0.00     0.008 C 
BRANCH   3   4
ATOM      4  N   UNL d   1      74.166  90.125 105.831  0.00  0.00    -0.144 NA
ATOM      5  C   UNL d   1      74.460  91.542 105.676  0.00  0.00     0.124 C 
ENDBRANCH   3   4
ENDBRANCH   2   3
ENDBRANCH   1   2
BRANCH   1   6
ATOM      6  O   UNL d   1      69.932  89.808 102.853  0.00  0.00    -0.299 OA
BRANCH   6   7
ATOM      7  C   UNL d   1      68.823  89.349 103.524  0.00  0.00     0.101 A 
ATOM      8  C   UNL d   1      67.914  88.601 102.780  0.00  0.00     0.025 A 
ATOM      9  C   UNL d   1      66.779  88.078 103.394  0.00  0.00     0.006 A 
ATOM     10  C   UNL d   1      66.542  88.300 104.753  0.00  0.00     0.072 A 
ATOM     11  C   UNL d   1      67.433  89.093 105.479  0.00  0.00     0.006 A 
ATOM     12  C   UNL d   1      68.570  89.620 104.869  0.00  0.00     0.025 A 
BRANCH  10  13
ATOM     13  C   UNL d   1      65.326  87.735 105.414  0.00  0.00     0.419 C 
ATOM     14  F   UNL d   1      65.465  86.426 105.772  0.00  0.00    -0.166 F 
ATOM     15  F   UNL d   1      64.986  88.390 106.560  0.00  0.00    -0.166 F 
ATOM     16  F   UNL d   1      64.224  87.785 104.615  0.00  0.00    -0.166 F 
ENDBRANCH  10  13
ENDBRANCH   6   7
ENDBRANCH   1   6
BRANCH   1  17
ATOM     17  C   UNL d   1      71.429  88.238 101.684  0.00  0.00     0.031 A 
ATOM     18  C   UNL d   1      72.248  88.754 100.674  0.00  0.00     0.003 A 
ATOM     19  C   UNL d   1      72.558  87.995  99.549  0.00  0.00     0.000 A 
ATOM     20  C   UNL d   1      72.055  86.705  99.421  0.00  0.00     0.000 A 
ATOM     21  C   UNL d   1      71.245  86.174 100.420  0.00  0.00     0.000 A 
ATOM     22  C   UNL d   1      70.937  86.938 101.544  0.00  0.00     0.003 A 
ENDBRANCH   1  17
TORSDOF 7
ENDMDL
MODEL 14
REMARK VINA RESULT:      -5.4     18.700     22.341
REMARK  7 active torsions:
REMARK  status: ('A' for Active; 'I' for Inactive)
REMARK    1  A    between atoms: N_2  and  C_3 
REMARK    2  A    between atoms: C_3  and  C_4 
REMARK    3  A    between atoms: C_4  and  C_5 
REMARK    4  A    between atoms: C_5  and  O_6 
REMARK    5  A    between atoms: C_5  and  C_17 
REMARK    6  A    between atoms: O_6  and  C_7 
REMARK    7  A    between atoms: C_10  and  C_13 
ROOT
ATOM      1  C   UNL d   1      64.029  88.089  90.606  0.00  0.00     0.142 C 
ENDROOT
BRANCH   1   2
ATOM      2  C   UNL d   1      64.405  86.790  91.044  0.00  0.00    -0.022 C 
BRANCH   2   3
ATOM      3  C   UNL d   1      64.863  85.388  91.469  0.00  0.00     0.008 C 
BRANCH   3   4
ATOM      4  N   UNL d   1      65.315  84.063  91.859  0.00  0.00    -0.144 NA
ATOM      5  C   UNL d   1      65.453  83.252  90.659  0.00  0.00     0.124 C 
ENDBRANCH   3   4
ENDBRANCH   2   3
ENDBRANCH   1   2
BRANCH   1   6
ATOM      6  O   UNL d   1      63.091  88.165  89.584  0.00  0.00    -0.299 OA
BRANCH   6   7
ATOM      7  C   UNL d   1      61.817  87.712  89.833  0.00  0.00     0.101 A 
ATOM      8  C   UNL d   1      61.239  86.917  88.846  0.00  0.00     0.025 A 
ATOM      9  C   UNL d   1      59.962  86.396  89.035  0.00  0.00     0.006 A 
ATOM     10  C   UNL d   1      59.251  86.668  90.207  0.00  0.00     0.072 A 
ATOM     11  C   UNL d   1      59.820  87.507  91.169  0.00  0.00     0.006 A 
ATOM     12  C   UNL d   1      61.097  88.031  90.984  0.00  0.00     0.025 A 
BRANCH  10  13
ATOM     13  C   UNL d   1      57.882  86.106  90.413  0.00  0.00     0.419 C 
ATOM     14  F   UNL d   1      56.912  86.786  89.736  0.00  0.00    -0.166 F 
ATOM     15  F   UNL d   1      57.768  84.811  90.008  0.00  0.00    -0.166 F 
ATOM     16  F   UNL d   1      57.500  86.124  91.721  0.00  0.00    -0.166 F 
ENDBRANCH  10  13
ENDBRANCH   6   7
ENDBRANCH   1   6
BRANCH   1  17
ATOM     17  C   UNL d   1      64.258  89.273  91.451  0.00  0.00     0.031 A 
ATOM     18  C   UNL d   1      63.808  90.541  91.071  0.00  0.00     0.003 A 
ATOM     19  C   UNL d   1      64.043  91.653  91.875  0.00  0.00     0.000 A 
ATOM     20  C   UNL d   1      64.729  91.508  93.077  0.00  0.00     0.000 A 
ATOM     21  C   UNL d   1      65.178  90.252  93.473  0.00  0.00     0.000 A 
ATOM     22  C   UNL d   1      64.941  89.143  92.664  0.00  0.00     0.003 A 
ENDBRANCH   1  17
TORSDOF 7
ENDMDL
MODEL 15
REMARK VINA RESULT:      -5.4     18.724     22.393
REMARK  7 active torsions:
REMARK  status: ('A' for Active; 'I' for Inactive)
REMARK    1  A    between atoms: N_2  and  C_3 
REMARK    2  A    between atoms: C_3  and  C_4 
REMARK    3  A    between atoms: C_4  and  C_5 
REMARK    4  A    between atoms: C_5  and  O_6 
REMARK    5  A    between atoms: C_5  and  C_17 
REMARK    6  A    between atoms: O_6  and  C_7 
REMARK    7  A    between atoms: C_10  and  C_13 
ROOT
ATOM      1  C   UNL d   1      64.929  89.728  93.078  0.00  0.00     0.142 C 
ENDROOT
BRANCH   1   2
ATOM      2  C   UNL d   1      65.621  88.529  92.754  0.00  0.00    -0.022 C 
BRANCH   2   3
ATOM      3  C   UNL d   1      66.403  87.240  92.466  0.00  0.00     0.008 C 
BRANCH   3   4
ATOM      4  N   UNL d   1      67.140  86.023  92.172  0.00  0.00    -0.144 NA
ATOM      5  C   UNL d   1      68.563  86.325  92.211  0.00  0.00     0.124 C 
ENDBRANCH   3   4
ENDBRANCH   2   3
ENDBRANCH   1   2
BRANCH   1   6
ATOM      6  O   UNL d   1      64.057  90.233  92.122  0.00  0.00    -0.299 OA
BRANCH   6   7
ATOM      7  C   UNL d   1      63.211  89.357  91.484  0.00  0.00     0.101 A 
ATOM      8  C   UNL d   1      62.278  88.703  92.285  0.00  0.00     0.025 A 
ATOM      9  C   UNL d   1      61.367  87.821  91.709  0.00  0.00     0.006 A 
ATOM     10  C   UNL d   1      61.383  87.582  90.333  0.00  0.00     0.072 A 
ATOM     11  C   UNL d   1      62.355  88.205  89.545  0.00  0.00     0.006 A 
ATOM     12  C   UNL d   1      63.269  89.088  90.117  0.00  0.00     0.025 A 
BRANCH  10  13
ATOM     13  C   UNL d   1      60.404  86.639  89.713  0.00  0.00     0.419 C 
ATOM     14  F   UNL d   1      60.544  85.353  90.146  0.00  0.00    -0.166 F 
ATOM     15  F   UNL d   1      59.107  86.969  89.969  0.00  0.00    -0.166 F 
ATOM     16  F   UNL d   1      60.514  86.585  88.356  0.00  0.00    -0.166 F 
ENDBRANCH  10  13
ENDBRANCH   6   7
ENDBRANCH   1   6
BRANCH   1  17
ATOM     17  C   UNL d   1      64.788  90.172  94.474  0.00  0.00     0.031 A 
ATOM     18  C   UNL d   1      65.749  89.858  95.442  0.00  0.00     0.003 A 
ATOM     19  C   UNL d   1      65.596  90.276  96.762  0.00  0.00     0.000 A 
ATOM     20  C   UNL d   1      64.479  91.019  97.130  0.00  0.00     0.000 A 
ATOM     21  C   UNL d   1      63.518  91.345  96.179  0.00  0.00     0.000 A 
ATOM     22  C   UNL d   1      63.675  90.924  94.859  0.00  0.00     0.003 A 
ENDBRANCH   1  17
TORSDOF 7
ENDMDL
MODEL 16
REMARK VINA RESULT:      -5.3     18.714     22.494
REMARK  7 active torsions:
REMARK  status: ('A' for Active; 'I' for Inactive)
REMARK    1  A    between atoms: N_2  and  C_3 
REMARK    2  A    between atoms: C_3  and  C_4 
REMARK    3  A    between atoms: C_4  and  C_5 
REMARK    4  A    between atoms: C_5  and  O_6 
REMARK    5  A    between atoms: C_5  and  C_17 
REMARK    6  A    between atoms: O_6  and  C_7 
REMARK    7  A    between atoms: C_10  and  C_13 
ROOT
ATOM      1  C   UNL d   1      63.790  88.989  91.947  0.00  0.00     0.142 C 
ENDROOT
BRANCH   1   2
ATOM      2  C   UNL d   1      64.607  87.845  91.732  0.00  0.00    -0.022 C 
BRANCH   2   3
ATOM      3  C   UNL d   1      65.468  86.585  91.563  0.00  0.00     0.008 C 
BRANCH   3   4
ATOM      4  N   UNL d   1      66.265  85.380  91.408  0.00  0.00    -0.144 NA
ATOM      5  C   UNL d   1      65.372  84.273  91.104  0.00  0.00     0.124 C 
ENDBRANCH   3   4
ENDBRANCH   2   3
ENDBRANCH   1   2
BRANCH   1   6
ATOM      6  O   UNL d   1      62.899  89.327  90.938  0.00  0.00    -0.299 OA
BRANCH   6   7
ATOM      7  C   UNL d   1      61.887  88.445  90.638  0.00  0.00     0.101 A 
ATOM      8  C   UNL d   1      61.788  88.047  89.307  0.00  0.00     0.025 A 
ATOM      9  C   UNL d   1      60.807  87.134  88.928  0.00  0.00     0.006 A 
ATOM     10  C   UNL d   1      59.918  86.616  89.872  0.00  0.00     0.072 A 
ATOM     11  C   UNL d   1      59.994  87.059  91.195  0.00  0.00     0.006 A 
ATOM     12  C   UNL d   1      60.973  87.973  91.579  0.00  0.00     0.025 A 
BRANCH  10  13
ATOM     13  C   UNL d   1      58.868  85.633  89.467  0.00  0.00     0.419 C 
ATOM     14  F   UNL d   1      57.690  85.794  90.135  0.00  0.00    -0.166 F 
ATOM     15  F   UNL d   1      58.548  85.704  88.145  0.00  0.00    -0.166 F 
ATOM     16  F   UNL d   1      59.244  84.342  89.691  0.00  0.00    -0.166 F 
ENDBRANCH  10  13
ENDBRANCH   6   7
ENDBRANCH   1   6
BRANCH   1  17
ATOM     17  C   UNL d   1      63.569  89.521  93.302  0.00  0.00     0.031 A 
ATOM     18  C   UNL d   1      64.027  88.845  94.437  0.00  0.00     0.003 A 
ATOM     19  C   UNL d   1      63.801  89.355  95.713  0.00  0.00     0.000 A 
ATOM     20  C   UNL d   1      63.113  90.555  95.868  0.00  0.00     0.000 A 
ATOM     21  C   UNL d   1      62.657  91.243  94.749  0.00  0.00     0.000 A 
ATOM     22  C   UNL d   1      62.886  90.728  93.475  0.00  0.00     0.003 A 
ENDBRANCH   1  17
TORSDOF 7
ENDMDL
MODEL 17
REMARK VINA RESULT:      -5.3      4.432      7.135
REMARK  7 active torsions:
REMARK  status: ('A' for Active; 'I' for Inactive)
REMARK    1  A    between atoms: N_2  and  C_3 
REMARK    2  A    between atoms: C_3  and  C_4 
REMARK    3  A    between atoms: C_4  and  C_5 
REMARK    4  A    between atoms: C_5  and  O_6 
REMARK    5  A    between atoms: C_5  and  C_17 
REMARK    6  A    between atoms: O_6  and  C_7 
REMARK    7  A    between atoms: C_10  and  C_13 
ROOT
ATOM      1  C   UNL d   1      77.762  70.884  90.031  0.00  0.00     0.142 C 
ENDROOT
BRANCH   1   2
ATOM      2  C   UNL d   1      78.235  72.090  89.446  0.00  0.00    -0.022 C 
BRANCH   2   3
ATOM      3  C   UNL d   1      78.746  73.422  88.880  0.00  0.00     0.008 C 
BRANCH   3   4
ATOM      4  N   UNL d   1      79.240  74.672  88.327  0.00  0.00    -0.144 NA
ATOM      5  C   UNL d   1      79.460  75.605  89.422  0.00  0.00     0.124 C 
ENDBRANCH   3   4
ENDBRANCH   2   3
ENDBRANCH   1   2
BRANCH   1   6
ATOM      6  O   UNL d   1      77.094  70.989  91.243  0.00  0.00    -0.299 OA
BRANCH   6   7
ATOM      7  C   UNL d   1      75.979  71.792  91.306  0.00  0.00     0.101 A 
ATOM      8  C   UNL d   1      76.091  72.948  92.074  0.00  0.00     0.025 A 
ATOM      9  C   UNL d   1      75.015  73.827  92.165  0.00  0.00     0.006 A 
ATOM     10  C   UNL d   1      73.820  73.557  91.494  0.00  0.00     0.072 A 
ATOM     11  C   UNL d   1      73.701  72.371  90.766  0.00  0.00     0.006 A 
ATOM     12  C   UNL d   1      74.774  71.487  90.673  0.00  0.00     0.025 A 
BRANCH  10  13
ATOM     13  C   UNL d   1      72.666  74.502  91.587  0.00  0.00     0.419 C 
ATOM     14  F   UNL d   1      72.646  75.431  90.589  0.00  0.00    -0.166 F 
ATOM     15  F   UNL d   1      71.456  73.878  91.526  0.00  0.00    -0.166 F 
ATOM     16  F   UNL d   1      72.662  75.211  92.750  0.00  0.00    -0.166 F 
ENDBRANCH  10  13
ENDBRANCH   6   7
ENDBRANCH   1   6
BRANCH   1  17
ATOM     17  C   UNL d   1      77.586  69.665  89.224  0.00  0.00     0.031 A 
ATOM     18  C   UNL d   1      78.226  68.467  89.558  0.00  0.00     0.003 A 
ATOM     19  C   UNL d   1      78.057  67.326  88.778  0.00  0.00     0.000 A 
ATOM     20  C   UNL d   1      77.239  67.368  87.653  0.00  0.00     0.000 A 
ATOM     21  C   UNL d   1      76.590  68.550  87.311  0.00  0.00     0.000 A 
ATOM     22  C   UNL d   1      76.762  69.689  88.095  0.00  0.00     0.003 A 
ENDBRANCH   1  17
TORSDOF 7
ENDMDL
MODEL 18
REMARK VINA RESULT:      -5.2     17.446     20.793
REMARK  7 active torsions:
REMARK  status: ('A' for Active; 'I' for Inactive)
REMARK    1  A    between atoms: N_2  and  C_3 
REMARK    2  A    between atoms: C_3  and  C_4 
REMARK    3  A    between atoms: C_4  and  C_5 
REMARK    4  A    between atoms: C_5  and  O_6 
REMARK    5  A    between atoms: C_5  and  C_17 
REMARK    6  A    between atoms: O_6  and  C_7 
REMARK    7  A    between atoms: C_10  and  C_13 
ROOT
ATOM      1  C   UNL d   1      64.973  84.929  91.385  0.00  0.00     0.142 C 
ENDROOT
BRANCH   1   2
ATOM      2  C   UNL d   1      66.218  85.524  91.727  0.00  0.00    -0.022 C 
BRANCH   2   3
ATOM      3  C   UNL d   1      67.587  86.146  92.032  0.00  0.00     0.008 C 
BRANCH   3   4
ATOM      4  N   UNL d   1      68.875  86.747  92.337  0.00  0.00    -0.144 NA
ATOM      5  C   UNL d   1      69.858  85.684  92.476  0.00  0.00     0.124 C 
ENDBRANCH   3   4
ENDBRANCH   2   3
ENDBRANCH   1   2
BRANCH   1   6
ATOM      6  O   UNL d   1      64.003  85.761  90.840  0.00  0.00    -0.299 OA
BRANCH   6   7
ATOM      7  C   UNL d   1      63.953  87.068  91.263  0.00  0.00     0.101 A 
ATOM      8  C   UNL d   1      63.420  87.289  92.530  0.00  0.00     0.025 A 
ATOM      9  C   UNL d   1      63.360  88.583  93.041  0.00  0.00     0.006 A 
ATOM     10  C   UNL d   1      63.829  89.665  92.291  0.00  0.00     0.072 A 
ATOM     11  C   UNL d   1      64.317  89.438  91.002  0.00  0.00     0.006 A 
ATOM     12  C   UNL d   1      64.377  88.146  90.485  0.00  0.00     0.025 A 
BRANCH  10  13
ATOM     13  C   UNL d   1      63.769  91.053  92.840  0.00  0.00     0.419 C 
ATOM     14  F   UNL d   1      62.720  91.254  93.689  0.00  0.00    -0.166 F 
ATOM     15  F   UNL d   1      64.881  91.397  93.549  0.00  0.00    -0.166 F 
ATOM     16  F   UNL d   1      63.641  91.997  91.866  0.00  0.00    -0.166 F 
ENDBRANCH  10  13
ENDBRANCH   6   7
ENDBRANCH   1   6
BRANCH   1  17
ATOM     17  C   UNL d   1      64.852  83.474  91.193  0.00  0.00     0.031 A 
ATOM     18  C   UNL d   1      65.976  82.641  91.188  0.00  0.00     0.003 A 
ATOM     19  C   UNL d   1      65.847  81.268  90.995  0.00  0.00     0.000 A 
ATOM     20  C   UNL d   1      64.587  80.709  90.809  0.00  0.00     0.000 A 
ATOM     21  C   UNL d   1      63.458  81.523  90.819  0.00  0.00     0.000 A 
ATOM     22  C   UNL d   1      63.593  82.896  91.012  0.00  0.00     0.003 A 
ENDBRANCH   1  17
TORSDOF 7
ENDMDL
MODEL 19
REMARK VINA RESULT:      -5.2     15.043     17.816
REMARK  7 active torsions:
REMARK  status: ('A' for Active; 'I' for Inactive)
REMARK    1  A    between atoms: N_2  and  C_3 
REMARK    2  A    between atoms: C_3  and  C_4 
REMARK    3  A    between atoms: C_4  and  C_5 
REMARK    4  A    between atoms: C_5  and  O_6 
REMARK    5  A    between atoms: C_5  and  C_17 
REMARK    6  A    between atoms: O_6  and  C_7 
REMARK    7  A    between atoms: C_10  and  C_13 
ROOT
ATOM      1  C   UNL d   1      67.415  72.236 103.287  0.00  0.00     0.142 C 
ENDROOT
BRANCH   1   2
ATOM      2  C   UNL d   1      66.121  71.783 102.908  0.00  0.00    -0.022 C 
BRANCH   2   3
ATOM      3  C   UNL d   1      64.697  71.341 102.545  0.00  0.00     0.008 C 
BRANCH   3   4
ATOM      4  N   UNL d   1      63.353  70.925 102.181  0.00  0.00    -0.144 NA
ATOM      5  C   UNL d   1      63.332  70.631 100.756  0.00  0.00     0.124 C 
ENDBRANCH   3   4
ENDBRANCH   2   3
ENDBRANCH   1   2
BRANCH   1   6
ATOM      6  O   UNL d   1      67.557  72.735 104.575  0.00  0.00    -0.299 OA
BRANCH   6   7
ATOM      7  C   UNL d   1      68.239  73.917 104.745  0.00  0.00     0.101 A 
ATOM      8  C   UNL d   1      69.398  73.857 105.515  0.00  0.00     0.025 A 
ATOM      9  C   UNL d   1      70.160  75.006 105.711  0.00  0.00     0.006 A 
ATOM     10  C   UNL d   1      69.769  76.222 105.144  0.00  0.00     0.072 A 
ATOM     11  C   UNL d   1      68.579  76.282 104.415  0.00  0.00     0.006 A 
ATOM     12  C   UNL d   1      67.813  75.135 104.217  0.00  0.00     0.025 A 
BRANCH  10  13
ATOM     13  C   UNL d   1      70.588  77.455 105.350  0.00  0.00     0.419 C 
ATOM     14  F   UNL d   1      71.252  77.469 106.542  0.00  0.00    -0.166 F 
ATOM     15  F   UNL d   1      71.548  77.626 104.398  0.00  0.00    -0.166 F 
ATOM     16  F   UNL d   1      69.838  78.592 105.333  0.00  0.00    -0.166 F 
ENDBRANCH  10  13
ENDBRANCH   6   7
ENDBRANCH   1   6
BRANCH   1  17
ATOM     17  C   UNL d   1      68.616  71.807 102.553  0.00  0.00     0.031 A 
ATOM     18  C   UNL d   1      69.400  72.716 101.835  0.00  0.00     0.003 A 
ATOM     19  C   UNL d   1      70.527  72.293 101.137  0.00  0.00     0.000 A 
ATOM     20  C   UNL d   1      70.890  70.950 101.152  0.00  0.00     0.000 A 
ATOM     21  C   UNL d   1      70.125  70.033 101.867  0.00  0.00     0.000 A 
ATOM     22  C   UNL d   1      68.997  70.462 102.564  0.00  0.00     0.003 A 
ENDBRANCH   1  17
TORSDOF 7
ENDMDL
MODEL 20
REMARK VINA RESULT:      -5.2     17.651     20.722
REMARK  7 active torsions:
REMARK  status: ('A' for Active; 'I' for Inactive)
REMARK    1  A    between atoms: N_2  and  C_3 
REMARK    2  A    between atoms: C_3  and  C_4 
REMARK    3  A    between atoms: C_4  and  C_5 
REMARK    4  A    between atoms: C_5  and  O_6 
REMARK    5  A    between atoms: C_5  and  C_17 
REMARK    6  A    between atoms: O_6  and  C_7 
REMARK    7  A    between atoms: C_10  and  C_13 
ROOT
ATOM      1  C   UNL d   1      62.606  87.575  92.091  0.00  0.00     0.142 C 
ENDROOT
BRANCH   1   2
ATOM      2  C   UNL d   1      61.794  87.061  91.043  0.00  0.00    -0.022 C 
BRANCH   2   3
ATOM      3  C   UNL d   1      60.862  86.508  89.957  0.00  0.00     0.008 C 
BRANCH   3   4
ATOM      4  N   UNL d   1      59.967  85.974  88.944  0.00  0.00    -0.144 NA
ATOM      5  C   UNL d   1      58.620  85.939  89.491  0.00  0.00     0.124 C 
ENDBRANCH   3   4
ENDBRANCH   2   3
ENDBRANCH   1   2
BRANCH   1   6
ATOM      6  O   UNL d   1      63.290  86.652  92.871  0.00  0.00    -0.299 OA
BRANCH   6   7
ATOM      7  C   UNL d   1      64.652  86.547  92.713  0.00  0.00     0.101 A 
ATOM      8  C   UNL d   1      65.435  87.041  93.754  0.00  0.00     0.025 A 
ATOM      9  C   UNL d   1      66.823  86.946  93.682  0.00  0.00     0.006 A 
ATOM     10  C   UNL d   1      67.437  86.363  92.571  0.00  0.00     0.072 A 
ATOM     11  C   UNL d   1      66.645  85.916  91.511  0.00  0.00     0.006 A 
ATOM     12  C   UNL d   1      65.257  86.009  91.578  0.00  0.00     0.025 A 
BRANCH  10  13
ATOM     13  C   UNL d   1      68.926  86.257  92.495  0.00  0.00     0.419 C 
ATOM     14  F   UNL d   1      69.460  86.905  91.420  0.00  0.00    -0.166 F 
ATOM     15  F   UNL d   1      69.557  86.780  93.584  0.00  0.00    -0.166 F 
ATOM     16  F   UNL d   1      69.355  84.968  92.398  0.00  0.00    -0.166 F 
ENDBRANCH  10  13
ENDBRANCH   6   7
ENDBRANCH   1   6
BRANCH   1  17
ATOM     17  C   UNL d   1      63.056  88.977  92.087  0.00  0.00     0.031 A 
ATOM     18  C   UNL d   1      62.984  89.772  93.235  0.00  0.00     0.003 A 
ATOM     19  C   UNL d   1      63.404  91.099  93.213  0.00  0.00     0.000 A 
ATOM     20  C   UNL d   1      63.907  91.649  92.037  0.00  0.00     0.000 A 
ATOM     21  C   UNL d   1      63.991  90.869  90.888  0.00  0.00     0.000 A 
ATOM     22  C   UNL d   1      63.569  89.541  90.916  0.00  0.00     0.003 A 
ENDBRANCH   1  17
TORSDOF 7
ENDMDL
