MODEL 1
REMARK VINA RESULT:      -5.1      0.000      0.000
REMARK  3 active torsions:
REMARK  status: ('A' for Active; 'I' for Inactive)
REMARK    1  A    between atoms: CA_3  and  C_5 
REMARK    2  A    between atoms: C_5  and  C_7 
REMARK    3  A    between atoms: C_7  and  C_9 
ROOT
ATOM      1  C   UNL d   1      80.589  80.937  96.846  0.00  0.00     0.252 C 
ATOM      2  O   UNL d   1      79.683  80.177  96.754  0.00  0.00    -0.282 OA
ATOM      3  CA  UNL d   1      81.618  81.904  97.092  0.00  0.00     0.154 C 
ATOM      4  N   UNL d   1      81.407  82.628  98.315  0.00  0.00    -0.094 NA
ENDROOT
BRANCH   3   5
ATOM      5  C   UNL d   1      82.769  82.133  96.191  0.00  0.00     0.254 C 
ATOM      6  O   UNL d   1      82.375  82.454  95.025  0.00  0.00    -0.282 OA
BRANCH   5   7
ATOM      7  C   UNL d   1      84.283  82.025  96.514  0.00  0.00     0.283 C 
ATOM      8  O   UNL d   1      84.659  82.982  97.273  0.00  0.00    -0.279 OA
BRANCH   7   9
ATOM      9  C   UNL d   1      85.428  81.041  96.137  0.00  0.00     0.297 C 
ATOM     10  O   UNL d   1      85.929  81.071  94.970  0.00  0.00    -0.272 OA
ATOM     11  C   UNL d   1      86.037  80.022  97.020  0.00  0.00     0.102 C 
ATOM     12  O   UNL d   1      86.671  79.029  97.792  0.00  0.00    -0.134 OA
ENDBRANCH   7   9
ENDBRANCH   5   7
ENDBRANCH   3   5
TORSDOF 3
ENDMDL
MODEL 2
REMARK VINA RESULT:      -5.0     19.667     21.548
REMARK  3 active torsions:
REMARK  status: ('A' for Active; 'I' for Inactive)
REMARK    1  A    between atoms: CA_3  and  C_5 
REMARK    2  A    between atoms: C_5  and  C_7 
REMARK    3  A    between atoms: C_7  and  C_9 
ROOT
ATOM      1  C   UNL d   1      64.956  88.420  96.433  0.00  0.00     0.252 C 
ATOM      2  O   UNL d   1      64.281  87.525  96.819  0.00  0.00    -0.282 OA
ATOM      3  CA  UNL d   1      65.895  89.405  95.983  0.00  0.00     0.154 C 
ATOM      4  N   UNL d   1      67.244  88.911  95.974  0.00  0.00    -0.094 NA
ENDROOT
BRANCH   3   5
ATOM      5  C   UNL d   1      65.520  90.777  95.573  0.00  0.00     0.254 C 
ATOM      6  O   UNL d   1      66.259  91.639  96.147  0.00  0.00    -0.282 OA
BRANCH   5   7
ATOM      7  C   UNL d   1      64.402  91.219  94.592  0.00  0.00     0.283 C 
ATOM      8  O   UNL d   1      64.896  91.799  93.565  0.00  0.00    -0.279 OA
BRANCH   7   9
ATOM      9  C   UNL d   1      62.850  91.121  94.566  0.00  0.00     0.297 C 
ATOM     10  O   UNL d   1      62.190  91.763  93.691  0.00  0.00    -0.272 OA
ATOM     11  C   UNL d   1      62.003  90.330  95.486  0.00  0.00     0.102 C 
ATOM     12  O   UNL d   1      61.125  89.607  96.317  0.00  0.00    -0.134 OA
ENDBRANCH   7   9
ENDBRANCH   5   7
ENDBRANCH   3   5
TORSDOF 3
ENDMDL
MODEL 3
REMARK VINA RESULT:      -4.9     21.822     22.477
REMARK  3 active torsions:
REMARK  status: ('A' for Active; 'I' for Inactive)
REMARK    1  A    between atoms: CA_3  and  C_5 
REMARK    2  A    between atoms: C_5  and  C_7 
REMARK    3  A    between atoms: C_7  and  C_9 
ROOT
ATOM      1  C   UNL d   1      63.579  88.331  91.123  0.00  0.00     0.252 C 
ATOM      2  O   UNL d   1      63.988  87.476  90.411  0.00  0.00    -0.282 OA
ATOM      3  CA  UNL d   1      62.965  89.268  92.018  0.00  0.00     0.154 C 
ATOM      4  N   UNL d   1      61.748  88.761  92.590  0.00  0.00    -0.094 NA
ENDROOT
BRANCH   3   5
ATOM      5  C   UNL d   1      63.518  90.607  92.319  0.00  0.00     0.254 C 
ATOM      6  O   UNL d   1      63.504  91.347  91.285  0.00  0.00    -0.282 OA
BRANCH   5   7
ATOM      7  C   UNL d   1      64.067  91.142  93.668  0.00  0.00     0.283 C 
ATOM      8  O   UNL d   1      65.090  91.887  93.485  0.00  0.00    -0.279 OA
BRANCH   7   9
ATOM      9  C   UNL d   1      63.671  90.985  95.165  0.00  0.00     0.297 C 
ATOM     10  O   UNL d   1      64.480  91.347  96.075  0.00  0.00    -0.272 OA
ATOM     11  C   UNL d   1      62.399  90.436  95.684  0.00  0.00     0.102 C 
ATOM     12  O   UNL d   1      61.219  89.929  96.262  0.00  0.00    -0.134 OA
ENDBRANCH   7   9
ENDBRANCH   5   7
ENDBRANCH   3   5
TORSDOF 3
ENDMDL
MODEL 4
REMARK VINA RESULT:      -4.9     21.813     22.497
REMARK  3 active torsions:
REMARK  status: ('A' for Active; 'I' for Inactive)
REMARK    1  A    between atoms: CA_3  and  C_5 
REMARK    2  A    between atoms: C_5  and  C_7 
REMARK    3  A    between atoms: C_7  and  C_9 
ROOT
ATOM      1  C   UNL d   1      62.230  90.382  95.819  0.00  0.00     0.252 C 
ATOM      2  O   UNL d   1      61.240  89.878  96.233  0.00  0.00    -0.282 OA
ATOM      3  CA  UNL d   1      63.459  91.031  95.466  0.00  0.00     0.154 C 
ATOM      4  N   UNL d   1      64.134  91.580  96.610  0.00  0.00    -0.094 NA
ENDROOT
BRANCH   3   5
ATOM      5  C   UNL d   1      63.976  91.127  94.083  0.00  0.00     0.254 C 
ATOM      6  O   UNL d   1      65.061  91.788  94.049  0.00  0.00    -0.282 OA
BRANCH   5   7
ATOM      7  C   UNL d   1      63.363  90.542  92.783  0.00  0.00     0.283 C 
ATOM      8  O   UNL d   1      63.141  91.464  91.925  0.00  0.00    -0.279 OA
BRANCH   7   9
ATOM      9  C   UNL d   1      62.963  89.122  92.288  0.00  0.00     0.297 C 
ATOM     10  O   UNL d   1      62.263  88.367  93.032  0.00  0.00    -0.272 OA
ATOM     11  C   UNL d   1      63.319  88.512  90.988  0.00  0.00     0.102 C 
ATOM     12  O   UNL d   1      63.612  87.857  89.776  0.00  0.00    -0.134 OA
ENDBRANCH   7   9
ENDBRANCH   5   7
ENDBRANCH   3   5
TORSDOF 3
ENDMDL
MODEL 5
REMARK VINA RESULT:      -4.9     20.085     22.928
REMARK  3 active torsions:
REMARK  status: ('A' for Active; 'I' for Inactive)
REMARK    1  A    between atoms: CA_3  and  C_5 
REMARK    2  A    between atoms: C_5  and  C_7 
REMARK    3  A    between atoms: C_7  and  C_9 
ROOT
ATOM      1  C   UNL d   1      65.109  89.703  96.769  0.00  0.00     0.252 C 
ATOM      2  O   UNL d   1      65.627  88.731  97.206  0.00  0.00    -0.282 OA
ATOM      3  CA  UNL d   1      64.514  90.947  96.378  0.00  0.00     0.154 C 
ATOM      4  N   UNL d   1      64.577  91.934  97.421  0.00  0.00    -0.094 NA
ENDROOT
BRANCH   3   5
ATOM      5  C   UNL d   1      63.902  91.191  95.053  0.00  0.00     0.254 C 
ATOM      6  O   UNL d   1      64.762  91.645  94.233  0.00  0.00    -0.282 OA
BRANCH   5   7
ATOM      7  C   UNL d   1      62.432  90.961  94.613  0.00  0.00     0.283 C 
ATOM      8  O   UNL d   1      62.110  91.751  93.660  0.00  0.00    -0.279 OA
BRANCH   7   9
ATOM      9  C   UNL d   1      61.280  90.012  95.052  0.00  0.00     0.297 C 
ATOM     10  O   UNL d   1      61.154  89.694  96.275  0.00  0.00    -0.272 OA
ATOM     11  C   UNL d   1      60.260  89.403  94.171  0.00  0.00     0.102 C 
ATOM     12  O   UNL d   1      59.253  88.782  93.405  0.00  0.00    -0.134 OA
ENDBRANCH   7   9
ENDBRANCH   5   7
ENDBRANCH   3   5
TORSDOF 3
ENDMDL
MODEL 6
REMARK VINA RESULT:      -4.8     14.788     16.537
REMARK  3 active torsions:
REMARK  status: ('A' for Active; 'I' for Inactive)
REMARK    1  A    between atoms: CA_3  and  C_5 
REMARK    2  A    between atoms: C_5  and  C_7 
REMARK    3  A    between atoms: C_7  and  C_9 
ROOT
ATOM      1  C   UNL d   1      77.654  68.099  86.711  0.00  0.00     0.252 C 
ATOM      2  O   UNL d   1      78.416  67.437  86.089  0.00  0.00    -0.282 OA
ATOM      3  CA  UNL d   1      76.661  68.929  87.327  0.00  0.00     0.154 C 
ATOM      4  N   UNL d   1      75.725  69.461  86.374  0.00  0.00    -0.094 NA
ENDROOT
BRANCH   3   5
ATOM      5  C   UNL d   1      76.602  69.209  88.779  0.00  0.00     0.254 C 
ATOM      6  O   UNL d   1      77.212  68.309  89.439  0.00  0.00    -0.282 OA
BRANCH   5   7
ATOM      7  C   UNL d   1      75.922  70.401  89.505  0.00  0.00     0.283 C 
ATOM      8  O   UNL d   1      76.749  71.360  89.685  0.00  0.00    -0.279 OA
BRANCH   7   9
ATOM      9  C   UNL d   1      74.496  70.695  90.053  0.00  0.00     0.297 C 
ATOM     10  O   UNL d   1      73.571  69.838  89.902  0.00  0.00    -0.272 OA
ATOM     11  C   UNL d   1      74.065  71.917  90.768  0.00  0.00     0.102 C 
ATOM     12  O   UNL d   1      73.571  73.043  91.455  0.00  0.00    -0.134 OA
ENDBRANCH   7   9
ENDBRANCH   5   7
ENDBRANCH   3   5
TORSDOF 3
ENDMDL
MODEL 7
REMARK VINA RESULT:      -4.8     20.089     22.017
REMARK  3 active torsions:
REMARK  status: ('A' for Active; 'I' for Inactive)
REMARK    1  A    between atoms: CA_3  and  C_5 
REMARK    2  A    between atoms: C_5  and  C_7 
REMARK    3  A    between atoms: C_7  and  C_9 
ROOT
ATOM      1  C   UNL d   1      61.521  89.654  95.380  0.00  0.00     0.252 C 
ATOM      2  O   UNL d   1      61.036  89.267  96.390  0.00  0.00    -0.282 OA
ATOM      3  CA  UNL d   1      62.002  90.032  94.083  0.00  0.00     0.154 C 
ATOM      4  N   UNL d   1      61.274  89.392  93.022  0.00  0.00    -0.094 NA
ENDROOT
BRANCH   3   5
ATOM      5  C   UNL d   1      63.121  90.974  93.859  0.00  0.00     0.254 C 
ATOM      6  O   UNL d   1      62.893  91.717  92.852  0.00  0.00    -0.282 OA
BRANCH   5   7
ATOM      7  C   UNL d   1      64.433  91.123  94.674  0.00  0.00     0.283 C 
ATOM      8  O   UNL d   1      65.377  91.580  93.943  0.00  0.00    -0.279 OA
BRANCH   7   9
ATOM      9  C   UNL d   1      64.860  90.851  96.145  0.00  0.00     0.297 C 
ATOM     10  O   UNL d   1      64.839  91.795  96.995  0.00  0.00    -0.272 OA
ATOM     11  C   UNL d   1      65.310  89.557  96.705  0.00  0.00     0.102 C 
ATOM     12  O   UNL d   1      65.749  88.367  97.317  0.00  0.00    -0.134 OA
ENDBRANCH   7   9
ENDBRANCH   5   7
ENDBRANCH   3   5
TORSDOF 3
ENDMDL
MODEL 8
REMARK VINA RESULT:      -4.7     19.508     22.192
REMARK  3 active torsions:
REMARK  status: ('A' for Active; 'I' for Inactive)
REMARK    1  A    between atoms: CA_3  and  C_5 
REMARK    2  A    between atoms: C_5  and  C_7 
REMARK    3  A    between atoms: C_7  and  C_9 
ROOT
ATOM      1  C   UNL d   1      65.612  88.549  92.613  0.00  0.00     0.252 C 
ATOM      2  O   UNL d   1      66.590  88.411  93.268  0.00  0.00    -0.282 OA
ATOM      3  CA  UNL d   1      64.474  88.586  91.741  0.00  0.00     0.154 C 
ATOM      4  N   UNL d   1      64.479  87.510  90.789  0.00  0.00    -0.094 NA
ENDROOT
BRANCH   3   5
ATOM      5  C   UNL d   1      63.412  89.615  91.812  0.00  0.00     0.254 C 
ATOM      6  O   UNL d   1      62.522  89.409  90.928  0.00  0.00    -0.282 OA
BRANCH   5   7
ATOM      7  C   UNL d   1      63.300  90.818  92.785  0.00  0.00     0.283 C 
ATOM      8  O   UNL d   1      63.170  91.917  92.143  0.00  0.00    -0.279 OA
BRANCH   7   9
ATOM      9  C   UNL d   1      63.309  90.997  94.331  0.00  0.00     0.297 C 
ATOM     10  O   UNL d   1      64.271  91.608  94.892  0.00  0.00    -0.272 OA
ATOM     11  C   UNL d   1      62.278  90.515  95.277  0.00  0.00     0.102 C 
ATOM     12  O   UNL d   1      61.346  90.093  96.244  0.00  0.00    -0.134 OA
ENDBRANCH   7   9
ENDBRANCH   5   7
ENDBRANCH   3   5
TORSDOF 3
ENDMDL
MODEL 9
REMARK VINA RESULT:      -4.7     15.348     16.420
REMARK  3 active torsions:
REMARK  status: ('A' for Active; 'I' for Inactive)
REMARK    1  A    between atoms: CA_3  and  C_5 
REMARK    2  A    between atoms: C_5  and  C_7 
REMARK    3  A    between atoms: C_7  and  C_9 
ROOT
ATOM      1  C   UNL d   1      77.682  68.145  86.755  0.00  0.00     0.252 C 
ATOM      2  O   UNL d   1      78.407  67.426  86.154  0.00  0.00    -0.282 OA
ATOM      3  CA  UNL d   1      76.717  69.022  87.353  0.00  0.00     0.154 C 
ATOM      4  N   UNL d   1      75.657  69.367  86.446  0.00  0.00    -0.094 NA
ENDROOT
BRANCH   3   5
ATOM      5  C   UNL d   1      76.801  69.517  88.745  0.00  0.00     0.254 C 
ATOM      6  O   UNL d   1      77.826  69.047  89.332  0.00  0.00    -0.282 OA
BRANCH   5   7
ATOM      7  C   UNL d   1      75.831  70.475  89.487  0.00  0.00     0.283 C 
ATOM      8  O   UNL d   1      75.883  71.653  88.993  0.00  0.00    -0.279 OA
BRANCH   7   9
ATOM      9  C   UNL d   1      74.830  70.338  90.670  0.00  0.00     0.297 C 
ATOM     10  O   UNL d   1      73.687  70.887  90.598  0.00  0.00    -0.272 OA
ATOM     11  C   UNL d   1      75.061  69.609  91.937  0.00  0.00     0.102 C 
ATOM     12  O   UNL d   1      75.197  68.939  93.168  0.00  0.00    -0.134 OA
ENDBRANCH   7   9
ENDBRANCH   5   7
ENDBRANCH   3   5
TORSDOF 3
ENDMDL
MODEL 10
REMARK VINA RESULT:      -4.6     14.101     15.796
REMARK  3 active torsions:
REMARK  status: ('A' for Active; 'I' for Inactive)
REMARK    1  A    between atoms: CA_3  and  C_5 
REMARK    2  A    between atoms: C_5  and  C_7 
REMARK    3  A    between atoms: C_7  and  C_9 
ROOT
ATOM      1  C   UNL d   1      77.830  68.036  86.886  0.00  0.00     0.252 C 
ATOM      2  O   UNL d   1      78.334  67.216  86.194  0.00  0.00    -0.282 OA
ATOM      3  CA  UNL d   1      77.085  68.991  87.652  0.00  0.00     0.154 C 
ATOM      4  N   UNL d   1      75.689  68.997  87.310  0.00  0.00    -0.094 NA
ENDROOT
BRANCH   3   5
ATOM      5  C   UNL d   1      77.683  69.873  88.680  0.00  0.00     0.254 C 
ATOM      6  O   UNL d   1      78.580  69.258  89.338  0.00  0.00    -0.282 OA
BRANCH   5   7
ATOM      7  C   UNL d   1      77.341  71.353  88.997  0.00  0.00     0.283 C 
ATOM      8  O   UNL d   1      78.347  72.112  88.782  0.00  0.00    -0.279 OA
BRANCH   7   9
ATOM      9  C   UNL d   1      76.083  72.114  89.505  0.00  0.00     0.297 C 
ATOM     10  O   UNL d   1      75.992  73.370  89.336  0.00  0.00    -0.272 OA
ATOM     11  C   UNL d   1      74.918  71.522  90.199  0.00  0.00     0.102 C 
ATOM     12  O   UNL d   1      73.773  71.041  90.864  0.00  0.00    -0.134 OA
ENDBRANCH   7   9
ENDBRANCH   5   7
ENDBRANCH   3   5
TORSDOF 3
ENDMDL
MODEL 11
REMARK VINA RESULT:      -4.6      2.009      3.240
REMARK  3 active torsions:
REMARK  status: ('A' for Active; 'I' for Inactive)
REMARK    1  A    between atoms: CA_3  and  C_5 
REMARK    2  A    between atoms: C_5  and  C_7 
REMARK    3  A    between atoms: C_7  and  C_9 
ROOT
ATOM      1  C   UNL d   1      79.016  80.071  98.896  0.00  0.00     0.252 C 
ATOM      2  O   UNL d   1      78.333  79.280  99.456  0.00  0.00    -0.282 OA
ATOM      3  CA  UNL d   1      79.876  81.086  98.362  0.00  0.00     0.154 C 
ATOM      4  N   UNL d   1      80.453  81.909  99.388  0.00  0.00    -0.094 NA
ENDROOT
BRANCH   3   5
ATOM      5  C   UNL d   1      80.142  81.267  96.917  0.00  0.00     0.254 C 
ATOM      6  O   UNL d   1      79.121  81.741  96.325  0.00  0.00    -0.282 OA
BRANCH   5   7
ATOM      7  C   UNL d   1      81.442  80.957  96.130  0.00  0.00     0.283 C 
ATOM      8  O   UNL d   1      81.244  80.043  95.258  0.00  0.00    -0.279 OA
BRANCH   7   9
ATOM      9  C   UNL d   1      82.905  81.488  96.154  0.00  0.00     0.297 C 
ATOM     10  O   UNL d   1      83.265  82.309  97.054  0.00  0.00    -0.272 OA
ATOM     11  C   UNL d   1      83.984  81.133  95.206  0.00  0.00     0.102 C 
ATOM     12  O   UNL d   1      85.066  80.850  94.351  0.00  0.00    -0.134 OA
ENDBRANCH   7   9
ENDBRANCH   5   7
ENDBRANCH   3   5
TORSDOF 3
ENDMDL
MODEL 12
REMARK VINA RESULT:      -4.5     18.567     20.658
REMARK  3 active torsions:
REMARK  status: ('A' for Active; 'I' for Inactive)
REMARK    1  A    between atoms: CA_3  and  C_5 
REMARK    2  A    between atoms: C_5  and  C_7 
REMARK    3  A    between atoms: C_7  and  C_9 
ROOT
ATOM      1  C   UNL d   1      62.163  90.198  95.986  0.00  0.00     0.252 C 
ATOM      2  O   UNL d   1      61.110  89.680  96.154  0.00  0.00    -0.282 OA
ATOM      3  CA  UNL d   1      63.373  90.893  95.655  0.00  0.00     0.154 C 
ATOM      4  N   UNL d   1      63.231  91.707  94.479  0.00  0.00    -0.094 NA
ENDROOT
BRANCH   3   5
ATOM      5  C   UNL d   1      64.626  90.787  96.435  0.00  0.00     0.254 C 
ATOM      6  O   UNL d   1      64.811  91.829  97.140  0.00  0.00    -0.282 OA
BRANCH   5   7
ATOM      7  C   UNL d   1      65.646  89.617  96.465  0.00  0.00     0.283 C 
ATOM      8  O   UNL d   1      65.668  89.059  97.615  0.00  0.00    -0.279 OA
BRANCH   7   9
ATOM      9  C   UNL d   1      66.628  88.978  95.442  0.00  0.00     0.297 C 
ATOM     10  O   UNL d   1      67.820  88.712  95.791  0.00  0.00    -0.272 OA
ATOM     11  C   UNL d   1      66.326  88.623  94.037  0.00  0.00     0.102 C 
ATOM     12  O   UNL d   1      66.125  88.256  92.693  0.00  0.00    -0.134 OA
ENDBRANCH   7   9
ENDBRANCH   5   7
ENDBRANCH   3   5
TORSDOF 3
ENDMDL
MODEL 13
REMARK VINA RESULT:      -4.5     30.482     32.950
REMARK  3 active torsions:
REMARK  status: ('A' for Active; 'I' for Inactive)
REMARK    1  A    between atoms: CA_3  and  C_5 
REMARK    2  A    between atoms: C_5  and  C_7 
REMARK    3  A    between atoms: C_7  and  C_9 
ROOT
ATOM      1  C   UNL d   1      53.448  74.477  80.419  0.00  0.00     0.252 C 
ATOM      2  O   UNL d   1      52.876  75.264  79.742  0.00  0.00    -0.282 OA
ATOM      3  CA  UNL d   1      54.109  73.620  81.360  0.00  0.00     0.154 C 
ATOM      4  N   UNL d   1      54.073  74.146  82.697  0.00  0.00    -0.094 NA
ENDROOT
BRANCH   3   5
ATOM      5  C   UNL d   1      54.757  72.340  80.998  0.00  0.00     0.254 C 
ATOM      6  O   UNL d   1      53.903  71.399  80.945  0.00  0.00    -0.282 OA
BRANCH   5   7
ATOM      7  C   UNL d   1      56.256  72.068  80.704  0.00  0.00     0.283 C 
ATOM      8  O   UNL d   1      56.406  71.515  79.561  0.00  0.00    -0.279 OA
BRANCH   7   9
ATOM      9  C   UNL d   1      57.595  72.307  81.460  0.00  0.00     0.297 C 
ATOM     10  O   UNL d   1      57.600  72.381  82.728  0.00  0.00    -0.272 OA
ATOM     11  C   UNL d   1      58.933  72.466  80.850  0.00  0.00     0.102 C 
ATOM     12  O   UNL d   1      60.240  72.628  80.352  0.00  0.00    -0.134 OA
ENDBRANCH   7   9
ENDBRANCH   5   7
ENDBRANCH   3   5
TORSDOF 3
ENDMDL
MODEL 14
REMARK VINA RESULT:      -4.5     15.528     16.798
REMARK  3 active torsions:
REMARK  status: ('A' for Active; 'I' for Inactive)
REMARK    1  A    between atoms: CA_3  and  C_5 
REMARK    2  A    between atoms: C_5  and  C_7 
REMARK    3  A    between atoms: C_7  and  C_9 
ROOT
ATOM      1  C   UNL d   1      76.457  71.310  88.002  0.00  0.00     0.252 C 
ATOM      2  O   UNL d   1      76.662  72.455  88.231  0.00  0.00    -0.282 OA
ATOM      3  CA  UNL d   1      76.099  69.932  87.838  0.00  0.00     0.154 C 
ATOM      4  N   UNL d   1      75.053  69.528  88.736  0.00  0.00    -0.094 NA
ENDROOT
BRANCH   3   5
ATOM      5  C   UNL d   1      76.734  69.025  86.856  0.00  0.00     0.254 C 
ATOM      6  O   UNL d   1      76.347  69.294  85.675  0.00  0.00    -0.282 OA
BRANCH   5   7
ATOM      7  C   UNL d   1      77.742  67.874  87.117  0.00  0.00     0.283 C 
ATOM      8  O   UNL d   1      78.310  67.507  86.032  0.00  0.00    -0.279 OA
BRANCH   7   9
ATOM      9  C   UNL d   1      78.213  67.078  88.368  0.00  0.00     0.297 C 
ATOM     10  O   UNL d   1      78.975  66.071  88.227  0.00  0.00    -0.272 OA
ATOM     11  C   UNL d   1      77.864  67.367  89.777  0.00  0.00     0.102 C 
ATOM     12  O   UNL d   1      77.582  67.571  91.141  0.00  0.00    -0.134 OA
ENDBRANCH   7   9
ENDBRANCH   5   7
ENDBRANCH   3   5
TORSDOF 3
ENDMDL
MODEL 15
REMARK VINA RESULT:      -4.5      4.455      5.371
REMARK  3 active torsions:
REMARK  status: ('A' for Active; 'I' for Inactive)
REMARK    1  A    between atoms: CA_3  and  C_5 
REMARK    2  A    between atoms: C_5  and  C_7 
REMARK    3  A    between atoms: C_7  and  C_9 
ROOT
ATOM      1  C   UNL d   1      79.048  81.654  96.393  0.00  0.00     0.252 C 
ATOM      2  O   UNL d   1      78.729  81.423  95.275  0.00  0.00    -0.282 OA
ATOM      3  CA  UNL d   1      79.404  82.085  97.713  0.00  0.00     0.154 C 
ATOM      4  N   UNL d   1      79.280  83.507  97.876  0.00  0.00    -0.094 NA
ENDROOT
BRANCH   3   5
ATOM      5  C   UNL d   1      79.850  81.170  98.788  0.00  0.00     0.254 C 
ATOM      6  O   UNL d   1      80.585  81.782  99.627  0.00  0.00    -0.282 OA
BRANCH   5   7
ATOM      7  C   UNL d   1      79.529  79.663  98.966  0.00  0.00     0.283 C 
ATOM      8  O   UNL d   1      78.343  79.497  99.416  0.00  0.00    -0.279 OA
BRANCH   7   9
ATOM      9  C   UNL d   1      80.298  78.331  98.730  0.00  0.00     0.297 C 
ATOM     10  O   UNL d   1      81.428  78.348  98.149  0.00  0.00    -0.272 OA
ATOM     11  C   UNL d   1      79.850  76.976  99.121  0.00  0.00     0.102 C 
ATOM     12  O   UNL d   1      79.500  75.654  99.457  0.00  0.00    -0.134 OA
ENDBRANCH   7   9
ENDBRANCH   5   7
ENDBRANCH   3   5
TORSDOF 3
ENDMDL
MODEL 16
REMARK VINA RESULT:      -4.4     20.239     22.626
REMARK  3 active torsions:
REMARK  status: ('A' for Active; 'I' for Inactive)
REMARK    1  A    between atoms: CA_3  and  C_5 
REMARK    2  A    between atoms: C_5  and  C_7 
REMARK    3  A    between atoms: C_7  and  C_9 
ROOT
ATOM      1  C   UNL d   1      59.848  89.429  94.398  0.00  0.00     0.252 C 
ATOM      2  O   UNL d   1      58.717  89.074  94.384  0.00  0.00    -0.282 OA
ATOM      3  CA  UNL d   1      61.197  89.884  94.569  0.00  0.00     0.154 C 
ATOM      4  N   UNL d   1      61.482  90.248  95.929  0.00  0.00    -0.094 NA
ENDROOT
BRANCH   3   5
ATOM      5  C   UNL d   1      62.185  89.970  93.471  0.00  0.00     0.254 C 
ATOM      6  O   UNL d   1      61.943  89.101  92.574  0.00  0.00    -0.282 OA
BRANCH   5   7
ATOM      7  C   UNL d   1      63.387  90.941  93.330  0.00  0.00     0.283 C 
ATOM      8  O   UNL d   1      63.097  91.920  92.560  0.00  0.00    -0.279 OA
BRANCH   7   9
ATOM      9  C   UNL d   1      64.835  91.000  93.896  0.00  0.00     0.297 C 
ATOM     10  O   UNL d   1      65.516  92.067  93.781  0.00  0.00    -0.272 OA
ATOM     11  C   UNL d   1      65.554  89.907  94.588  0.00  0.00     0.102 C 
ATOM     12  O   UNL d   1      66.308  88.923  95.255  0.00  0.00    -0.134 OA
ENDBRANCH   7   9
ENDBRANCH   5   7
ENDBRANCH   3   5
TORSDOF 3
ENDMDL
MODEL 17
REMARK VINA RESULT:      -4.4     20.588     22.289
REMARK  3 active torsions:
REMARK  status: ('A' for Active; 'I' for Inactive)
REMARK    1  A    between atoms: CA_3  and  C_5 
REMARK    2  A    between atoms: C_5  and  C_7 
REMARK    3  A    between atoms: C_7  and  C_9 
ROOT
ATOM      1  C   UNL d   1      61.259  88.814  94.045  0.00  0.00     0.252 C 
ATOM      2  O   UNL d   1      60.761  87.814  93.648  0.00  0.00    -0.282 OA
ATOM      3  CA  UNL d   1      61.799  89.988  94.665  0.00  0.00     0.154 C 
ATOM      4  N   UNL d   1      61.443  90.086  96.054  0.00  0.00    -0.094 NA
ENDROOT
BRANCH   3   5
ATOM      5  C   UNL d   1      62.629  90.989  93.958  0.00  0.00     0.254 C 
ATOM      6  O   UNL d   1      62.006  92.091  93.837  0.00  0.00    -0.282 OA
BRANCH   5   7
ATOM      7  C   UNL d   1      64.067  90.826  93.398  0.00  0.00     0.283 C 
ATOM      8  O   UNL d   1      64.712  91.928  93.464  0.00  0.00    -0.279 OA
BRANCH   7   9
ATOM      9  C   UNL d   1      64.892  89.657  92.787  0.00  0.00     0.297 C 
ATOM     10  O   UNL d   1      65.949  89.257  93.367  0.00  0.00    -0.272 OA
ATOM     11  C   UNL d   1      64.577  88.914  91.546  0.00  0.00     0.102 C 
ATOM     12  O   UNL d   1      64.352  88.158  90.380  0.00  0.00    -0.134 OA
ENDBRANCH   7   9
ENDBRANCH   5   7
ENDBRANCH   3   5
TORSDOF 3
ENDMDL
MODEL 18
REMARK VINA RESULT:      -4.4      2.251      5.177
REMARK  3 active torsions:
REMARK  status: ('A' for Active; 'I' for Inactive)
REMARK    1  A    between atoms: CA_3  and  C_5 
REMARK    2  A    between atoms: C_5  and  C_7 
REMARK    3  A    between atoms: C_7  and  C_9 
ROOT
ATOM      1  C   UNL d   1      84.765  81.043  95.179  0.00  0.00     0.252 C 
ATOM      2  O   UNL d   1      85.684  81.015  94.430  0.00  0.00    -0.282 OA
ATOM      3  CA  UNL d   1      83.722  81.204  96.149  0.00  0.00     0.154 C 
ATOM      4  N   UNL d   1      83.949  82.329  97.014  0.00  0.00    -0.094 NA
ENDROOT
BRANCH   3   5
ATOM      5  C   UNL d   1      82.544  80.314  96.251  0.00  0.00     0.254 C 
ATOM      6  O   UNL d   1      82.882  79.162  96.672  0.00  0.00    -0.282 OA
BRANCH   5   7
ATOM      7  C   UNL d   1      81.063  80.634  95.919  0.00  0.00     0.283 C 
ATOM      8  O   UNL d   1      80.807  80.393  94.689  0.00  0.00    -0.279 OA
BRANCH   7   9
ATOM      9  C   UNL d   1      79.839  81.168  96.717  0.00  0.00     0.297 C 
ATOM     10  O   UNL d   1      78.707  81.266  96.150  0.00  0.00    -0.272 OA
ATOM     11  C   UNL d   1      79.835  81.600  98.133  0.00  0.00     0.102 C 
ATOM     12  O   UNL d   1      79.741  82.028  99.471  0.00  0.00    -0.134 OA
ENDBRANCH   7   9
ENDBRANCH   5   7
ENDBRANCH   3   5
TORSDOF 3
ENDMDL
MODEL 19
REMARK VINA RESULT:      -4.3      1.916      5.187
REMARK  3 active torsions:
REMARK  status: ('A' for Active; 'I' for Inactive)
REMARK    1  A    between atoms: CA_3  and  C_5 
REMARK    2  A    between atoms: C_5  and  C_7 
REMARK    3  A    between atoms: C_7  and  C_9 
ROOT
ATOM      1  C   UNL d   1      85.551  81.116  95.561  0.00  0.00     0.252 C 
ATOM      2  O   UNL d   1      86.521  80.769  94.975  0.00  0.00    -0.282 OA
ATOM      3  CA  UNL d   1      84.475  81.596  96.378  0.00  0.00     0.154 C 
ATOM      4  N   UNL d   1      84.942  82.253  97.567  0.00  0.00    -0.094 NA
ENDROOT
BRANCH   3   5
ATOM      5  C   UNL d   1      83.043  81.433  96.038  0.00  0.00     0.254 C 
ATOM      6  O   UNL d   1      82.710  82.216  95.094  0.00  0.00    -0.282 OA
BRANCH   5   7
ATOM      7  C   UNL d   1      82.004  80.474  96.677  0.00  0.00     0.283 C 
ATOM      8  O   UNL d   1      82.493  79.301  96.825  0.00  0.00    -0.279 OA
BRANCH   7   9
ATOM      9  C   UNL d   1      80.534  80.603  97.170  0.00  0.00     0.297 C 
ATOM     10  O   UNL d   1      80.218  80.197  98.331  0.00  0.00    -0.272 OA
ATOM     11  C   UNL d   1      79.400  81.173  96.410  0.00  0.00     0.102 C 
ATOM     12  O   UNL d   1      78.267  81.698  95.758  0.00  0.00    -0.134 OA
ENDBRANCH   7   9
ENDBRANCH   5   7
ENDBRANCH   3   5
TORSDOF 3
ENDMDL
MODEL 20
REMARK VINA RESULT:      -4.2     19.425     21.653
REMARK  3 active torsions:
REMARK  status: ('A' for Active; 'I' for Inactive)
REMARK    1  A    between atoms: CA_3  and  C_5 
REMARK    2  A    between atoms: C_5  and  C_7 
REMARK    3  A    between atoms: C_7  and  C_9 
ROOT
ATOM      1  C   UNL d   1      65.752  89.319  94.610  0.00  0.00     0.252 C 
ATOM      2  O   UNL d   1      66.257  88.265  94.809  0.00  0.00    -0.282 OA
ATOM      3  CA  UNL d   1      65.151  90.618  94.524  0.00  0.00     0.154 C 
ATOM      4  N   UNL d   1      65.038  91.254  95.808  0.00  0.00    -0.094 NA
ENDROOT
BRANCH   3   5
ATOM      5  C   UNL d   1      64.698  91.237  93.258  0.00  0.00     0.254 C 
ATOM      6  O   UNL d   1      65.224  92.385  93.101  0.00  0.00    -0.282 OA
BRANCH   5   7
ATOM      7  C   UNL d   1      63.723  90.660  92.198  0.00  0.00     0.283 C 
ATOM      8  O   UNL d   1      63.495  91.513  91.273  0.00  0.00    -0.279 OA
BRANCH   7   9
ATOM      9  C   UNL d   1      62.973  89.312  92.002  0.00  0.00     0.297 C 
ATOM     10  O   UNL d   1      61.849  89.126  92.564  0.00  0.00    -0.272 OA
ATOM     11  C   UNL d   1      63.434  88.158  91.198  0.00  0.00     0.102 C 
ATOM     12  O   UNL d   1      63.796  87.017  90.456  0.00  0.00    -0.134 OA
ENDBRANCH   7   9
ENDBRANCH   5   7
ENDBRANCH   3   5
TORSDOF 3
ENDMDL
