MODEL 1
REMARK VINA RESULT:      -3.7      0.000      0.000
REMARK  3 active torsions:
REMARK  status: ('A' for Active; 'I' for Inactive)
REMARK    1  A    between atoms: N_1  and  C_9 
REMARK    2  A    between atoms: C_9  and  C_10 
REMARK    3  A    between atoms: C_10  and  N_11 
ROOT
ATOM      1  O   UNL d   2      79.823  85.274  97.651  0.00  0.00    -0.565 OA
ATOM      2  S   UNL d   2      79.363  86.676  97.640  0.00  0.00     0.261 S 
ATOM      3  O   UNL d   2      78.344  86.853  96.593  0.00  0.00    -0.565 OA
ATOM      4  O   UNL d   2      78.776  87.004  98.953  0.00  0.00    -0.565 OA
ATOM      5  O   UNL d   2      80.506  87.568  97.381  0.00  0.00    -0.565 OA
ENDROOT
TORSDOF 3
ENDMDL
MODEL 2
REMARK VINA RESULT:      -3.4     17.542     18.181
REMARK  3 active torsions:
REMARK  status: ('A' for Active; 'I' for Inactive)
REMARK    1  A    between atoms: N_1  and  C_9 
REMARK    2  A    between atoms: C_9  and  C_10 
REMARK    3  A    between atoms: C_10  and  N_11 
ROOT
ATOM      1  O   UNL d   2      78.935  77.070  83.142  0.00  0.00    -0.565 OA
ATOM      2  S   UNL d   2      80.159  77.149  82.323  0.00  0.00     0.261 S 
ATOM      3  O   UNL d   2      81.179  76.238  82.870  0.00  0.00    -0.565 OA
ATOM      4  O   UNL d   2      79.842  76.750  80.938  0.00  0.00    -0.565 OA
ATOM      5  O   UNL d   2      80.668  78.530  82.328  0.00  0.00    -0.565 OA
ENDROOT
TORSDOF 3
ENDMDL
MODEL 3
REMARK VINA RESULT:      -3.4     17.536     18.131
REMARK  3 active torsions:
REMARK  status: ('A' for Active; 'I' for Inactive)
REMARK    1  A    between atoms: N_1  and  C_9 
REMARK    2  A    between atoms: C_9  and  C_10 
REMARK    3  A    between atoms: C_10  and  N_11 
ROOT
ATOM      1  O   UNL d   2      81.182  76.243  82.872  0.00  0.00    -0.565 OA
ATOM      2  S   UNL d   2      80.148  77.143  82.327  0.00  0.00     0.261 S 
ATOM      3  O   UNL d   2      78.934  77.061  83.156  0.00  0.00    -0.565 OA
ATOM      4  O   UNL d   2      80.655  78.528  82.340  0.00  0.00    -0.565 OA
ATOM      5  O   UNL d   2      79.834  76.752  80.942  0.00  0.00    -0.565 OA
ENDROOT
TORSDOF 3
ENDMDL
MODEL 4
REMARK VINA RESULT:      -3.4     17.561     18.197
REMARK  3 active torsions:
REMARK  status: ('A' for Active; 'I' for Inactive)
REMARK    1  A    between atoms: N_1  and  C_9 
REMARK    2  A    between atoms: C_9  and  C_10 
REMARK    3  A    between atoms: C_10  and  N_11 
ROOT
ATOM      1  O   UNL d   2      80.663  78.539  82.279  0.00  0.00    -0.565 OA
ATOM      2  S   UNL d   2      80.158  77.153  82.293  0.00  0.00     0.261 S 
ATOM      3  O   UNL d   2      79.851  76.725  80.918  0.00  0.00    -0.565 OA
ATOM      4  O   UNL d   2      81.191  76.266  82.861  0.00  0.00    -0.565 OA
ATOM      5  O   UNL d   2      78.943  77.079  83.122  0.00  0.00    -0.565 OA
ENDROOT
TORSDOF 3
ENDMDL
MODEL 5
REMARK VINA RESULT:      -3.4     17.467     18.083
REMARK  3 active torsions:
REMARK  status: ('A' for Active; 'I' for Inactive)
REMARK    1  A    between atoms: N_1  and  C_9 
REMARK    2  A    between atoms: C_9  and  C_10 
REMARK    3  A    between atoms: C_10  and  N_11 
ROOT
ATOM      1  O   UNL d   2      79.642  76.832  80.978  0.00  0.00    -0.565 OA
ATOM      2  S   UNL d   2      80.054  77.190  82.348  0.00  0.00     0.261 S 
ATOM      3  O   UNL d   2      80.536  78.581  82.372  0.00  0.00    -0.565 OA
ATOM      4  O   UNL d   2      78.894  77.061  83.251  0.00  0.00    -0.565 OA
ATOM      5  O   UNL d   2      81.123  76.283  82.795  0.00  0.00    -0.565 OA
ENDROOT
TORSDOF 3
ENDMDL
MODEL 6
REMARK VINA RESULT:      -3.2      3.625      4.906
REMARK  3 active torsions:
REMARK  status: ('A' for Active; 'I' for Inactive)
REMARK    1  A    between atoms: N_1  and  C_9 
REMARK    2  A    between atoms: C_9  and  C_10 
REMARK    3  A    between atoms: C_10  and  N_11 
ROOT
ATOM      1  O   UNL d   2      80.447  81.884  99.319  0.00  0.00    -0.565 OA
ATOM      2  S   UNL d   2      80.625  82.374  97.939  0.00  0.00     0.261 S 
ATOM      3  O   UNL d   2      80.050  83.724  97.816  0.00  0.00    -0.565 OA
ATOM      4  O   UNL d   2      82.066  82.428  97.626  0.00  0.00    -0.565 OA
ATOM      5  O   UNL d   2      79.957  81.458  97.000  0.00  0.00    -0.565 OA
ENDROOT
TORSDOF 3
ENDMDL
MODEL 7
REMARK VINA RESULT:      -3.2      3.635      4.892
REMARK  3 active torsions:
REMARK  status: ('A' for Active; 'I' for Inactive)
REMARK    1  A    between atoms: N_1  and  C_9 
REMARK    2  A    between atoms: C_9  and  C_10 
REMARK    3  A    between atoms: C_10  and  N_11 
ROOT
ATOM      1  O   UNL d   2      79.956  81.450  97.002  0.00  0.00    -0.565 OA
ATOM      2  S   UNL d   2      80.636  82.366  97.937  0.00  0.00     0.261 S 
ATOM      3  O   UNL d   2      82.071  82.429  97.613  0.00  0.00    -0.565 OA
ATOM      4  O   UNL d   2      80.048  83.713  97.810  0.00  0.00    -0.565 OA
ATOM      5  O   UNL d   2      80.456  81.885  99.317  0.00  0.00    -0.565 OA
ENDROOT
TORSDOF 3
ENDMDL
MODEL 8
REMARK VINA RESULT:      -3.2      3.626      4.980
REMARK  3 active torsions:
REMARK  status: ('A' for Active; 'I' for Inactive)
REMARK    1  A    between atoms: N_1  and  C_9 
REMARK    2  A    between atoms: C_9  and  C_10 
REMARK    3  A    between atoms: C_10  and  N_11 
ROOT
ATOM      1  O   UNL d   2      80.043  83.722  97.812  0.00  0.00    -0.565 OA
ATOM      2  S   UNL d   2      80.633  82.376  97.946  0.00  0.00     0.261 S 
ATOM      3  O   UNL d   2      80.455  81.893  99.325  0.00  0.00    -0.565 OA
ATOM      4  O   UNL d   2      79.953  81.455  97.016  0.00  0.00    -0.565 OA
ATOM      5  O   UNL d   2      82.067  82.430  97.616  0.00  0.00    -0.565 OA
ENDROOT
TORSDOF 3
ENDMDL
MODEL 9
REMARK VINA RESULT:      -3.2      3.631      4.914
REMARK  3 active torsions:
REMARK  status: ('A' for Active; 'I' for Inactive)
REMARK    1  A    between atoms: N_1  and  C_9 
REMARK    2  A    between atoms: C_9  and  C_10 
REMARK    3  A    between atoms: C_10  and  N_11 
ROOT
ATOM      1  O   UNL d   2      80.484  81.912  99.329  0.00  0.00    -0.565 OA
ATOM      2  S   UNL d   2      80.659  82.379  97.941  0.00  0.00     0.261 S 
ATOM      3  O   UNL d   2      82.094  82.430  97.613  0.00  0.00    -0.565 OA
ATOM      4  O   UNL d   2      79.983  81.441  97.025  0.00  0.00    -0.565 OA
ATOM      5  O   UNL d   2      80.065  83.719  97.792  0.00  0.00    -0.565 OA
ENDROOT
TORSDOF 3
ENDMDL
MODEL 10
REMARK VINA RESULT:      -3.1      5.029      5.924
REMARK  3 active torsions:
REMARK  status: ('A' for Active; 'I' for Inactive)
REMARK    1  A    between atoms: N_1  and  C_9 
REMARK    2  A    between atoms: C_9  and  C_10 
REMARK    3  A    between atoms: C_10  and  N_11 
ROOT
ATOM      1  O   UNL d   2      81.604  82.617  98.029  0.00  0.00    -0.565 OA
ATOM      2  S   UNL d   2      82.484  82.091  96.969  0.00  0.00     0.261 S 
ATOM      3  O   UNL d   2      82.104  82.680  95.674  0.00  0.00    -0.565 OA
ATOM      4  O   UNL d   2      83.882  82.452  97.276  0.00  0.00    -0.565 OA
ATOM      5  O   UNL d   2      82.362  80.625  96.906  0.00  0.00    -0.565 OA
ENDROOT
TORSDOF 3
ENDMDL
MODEL 11
REMARK VINA RESULT:      -3.0      5.243      5.998
REMARK  3 active torsions:
REMARK  status: ('A' for Active; 'I' for Inactive)
REMARK    1  A    between atoms: N_1  and  C_9 
REMARK    2  A    between atoms: C_9  and  C_10 
REMARK    3  A    between atoms: C_10  and  N_11 
ROOT
ATOM      1  O   UNL d   2      82.734  80.564  96.696  0.00  0.00    -0.565 OA
ATOM      2  S   UNL d   2      82.710  82.033  96.830  0.00  0.00     0.261 S 
ATOM      3  O   UNL d   2      81.743  82.419  97.871  0.00  0.00    -0.565 OA
ATOM      4  O   UNL d   2      84.053  82.507  97.213  0.00  0.00    -0.565 OA
ATOM      5  O   UNL d   2      82.328  82.640  95.544  0.00  0.00    -0.565 OA
ENDROOT
TORSDOF 3
ENDMDL
MODEL 12
REMARK VINA RESULT:      -3.0     16.374     17.186
REMARK  3 active torsions:
REMARK  status: ('A' for Active; 'I' for Inactive)
REMARK    1  A    between atoms: N_1  and  C_9 
REMARK    2  A    between atoms: C_9  and  C_10 
REMARK    3  A    between atoms: C_10  and  N_11 
ROOT
ATOM      1  O   UNL d   2      62.464  91.781  93.257  0.00  0.00    -0.565 OA
ATOM      2  S   UNL d   2      63.703  91.293  92.623  0.00  0.00     0.261 S 
ATOM      3  O   UNL d   2      63.614  91.470  91.163  0.00  0.00    -0.565 OA
ATOM      4  O   UNL d   2      64.848  92.067  93.138  0.00  0.00    -0.565 OA
ATOM      5  O   UNL d   2      63.894  89.869  92.943  0.00  0.00    -0.565 OA
ENDROOT
TORSDOF 3
ENDMDL
MODEL 13
REMARK VINA RESULT:      -2.9      5.641      6.455
REMARK  3 active torsions:
REMARK  status: ('A' for Active; 'I' for Inactive)
REMARK    1  A    between atoms: N_1  and  C_9 
REMARK    2  A    between atoms: C_9  and  C_10 
REMARK    3  A    between atoms: C_10  and  N_11 
ROOT
ATOM      1  O   UNL d   2      84.048  81.280  95.243  0.00  0.00    -0.565 OA
ATOM      2  S   UNL d   2      83.104  81.753  96.274  0.00  0.00     0.261 S 
ATOM      3  O   UNL d   2      82.129  82.673  95.666  0.00  0.00    -0.565 OA
ATOM      4  O   UNL d   2      82.391  80.596  96.846  0.00  0.00    -0.565 OA
ATOM      5  O   UNL d   2      83.845  82.445  97.342  0.00  0.00    -0.565 OA
ENDROOT
TORSDOF 3
ENDMDL
MODEL 14
REMARK VINA RESULT:      -2.9     16.035     16.719
REMARK  3 active torsions:
REMARK  status: ('A' for Active; 'I' for Inactive)
REMARK    1  A    between atoms: N_1  and  C_9 
REMARK    2  A    between atoms: C_9  and  C_10 
REMARK    3  A    between atoms: C_10  and  N_11 
ROOT
ATOM      1  O   UNL d   2      64.004  89.873  93.517  0.00  0.00    -0.565 OA
ATOM      2  S   UNL d   2      63.829  91.336  93.586  0.00  0.00     0.261 S 
ATOM      3  O   UNL d   2      62.865  91.768  92.560  0.00  0.00    -0.565 OA
ATOM      4  O   UNL d   2      63.316  91.700  94.920  0.00  0.00    -0.565 OA
ATOM      5  O   UNL d   2      65.125  92.000  93.365  0.00  0.00    -0.565 OA
ENDROOT
TORSDOF 3
ENDMDL
MODEL 15
REMARK VINA RESULT:      -2.9     16.411     17.467
REMARK  3 active torsions:
REMARK  status: ('A' for Active; 'I' for Inactive)
REMARK    1  A    between atoms: N_1  and  C_9 
REMARK    2  A    between atoms: C_9  and  C_10 
REMARK    3  A    between atoms: C_10  and  N_11 
ROOT
ATOM      1  O   UNL d   2      62.104  91.874  94.372  0.00  0.00    -0.565 OA
ATOM      2  S   UNL d   2      63.180  91.326  93.524  0.00  0.00     0.261 S 
ATOM      3  O   UNL d   2      64.489  91.632  94.127  0.00  0.00    -0.565 OA
ATOM      4  O   UNL d   2      63.021  89.863  93.423  0.00  0.00    -0.565 OA
ATOM      5  O   UNL d   2      63.099  91.919  92.179  0.00  0.00    -0.565 OA
ENDROOT
TORSDOF 3
ENDMDL
MODEL 16
REMARK VINA RESULT:      -2.7     21.692     22.483
REMARK  3 active torsions:
REMARK  status: ('A' for Active; 'I' for Inactive)
REMARK    1  A    between atoms: N_1  and  C_9 
REMARK    2  A    between atoms: C_9  and  C_10 
REMARK    3  A    between atoms: C_10  and  N_11 
ROOT
ATOM      1  O   UNL d   2      64.316  73.810  90.519  0.00  0.00    -0.565 OA
ATOM      2  S   UNL d   2      63.462  72.608  90.562  0.00  0.00     0.261 S 
ATOM      3  O   UNL d   2      62.195  72.926  91.241  0.00  0.00    -0.565 OA
ATOM      4  O   UNL d   2      63.179  72.166  89.184  0.00  0.00    -0.565 OA
ATOM      5  O   UNL d   2      64.160  71.532  91.285  0.00  0.00    -0.565 OA
ENDROOT
TORSDOF 3
ENDMDL
MODEL 17
REMARK VINA RESULT:      -2.6      8.210      9.291
REMARK  3 active torsions:
REMARK  status: ('A' for Active; 'I' for Inactive)
REMARK    1  A    between atoms: N_1  and  C_9 
REMARK    2  A    between atoms: C_9  and  C_10 
REMARK    3  A    between atoms: C_10  and  N_11 
ROOT
ATOM      1  O   UNL d   2      71.181  90.242 101.467  0.00  0.00    -0.565 OA
ATOM      2  S   UNL d   2      72.150  89.522 102.314  0.00  0.00     0.261 S 
ATOM      3  O   UNL d   2      73.425  89.375 101.591  0.00  0.00    -0.565 OA
ATOM      4  O   UNL d   2      72.378  90.292 103.551  0.00  0.00    -0.565 OA
ATOM      5  O   UNL d   2      71.615  88.194 102.658  0.00  0.00    -0.565 OA
ENDROOT
TORSDOF 3
ENDMDL
MODEL 18
REMARK VINA RESULT:      -2.6     19.427     20.054
REMARK  3 active torsions:
REMARK  status: ('A' for Active; 'I' for Inactive)
REMARK    1  A    between atoms: N_1  and  C_9 
REMARK    2  A    between atoms: C_9  and  C_10 
REMARK    3  A    between atoms: C_10  and  N_11 
ROOT
ATOM      1  O   UNL d   2      69.042  70.751 103.262  0.00  0.00    -0.565 OA
ATOM      2  S   UNL d   2      69.141  70.069 101.958  0.00  0.00     0.261 S 
ATOM      3  O   UNL d   2      68.615  68.699 102.076  0.00  0.00    -0.565 OA
ATOM      4  O   UNL d   2      68.348  70.812 100.961  0.00  0.00    -0.565 OA
ATOM      5  O   UNL d   2      70.549  70.028 101.528  0.00  0.00    -0.565 OA
ENDROOT
TORSDOF 3
ENDMDL
MODEL 19
REMARK VINA RESULT:      -2.6     20.558     21.535
REMARK  3 active torsions:
REMARK  status: ('A' for Active; 'I' for Inactive)
REMARK    1  A    between atoms: N_1  and  C_9 
REMARK    2  A    between atoms: C_9  and  C_10 
REMARK    3  A    between atoms: C_10  and  N_11 
ROOT
ATOM      1  O   UNL d   2      78.552  67.625  86.031  0.00  0.00    -0.565 OA
ATOM      2  S   UNL d   2      77.656  68.088  87.108  0.00  0.00     0.261 S 
ATOM      3  O   UNL d   2      78.403  68.956  88.033  0.00  0.00    -0.565 OA
ATOM      4  O   UNL d   2      76.541  68.851  86.516  0.00  0.00    -0.565 OA
ATOM      5  O   UNL d   2      77.119  66.927  87.836  0.00  0.00    -0.565 OA
ENDROOT
TORSDOF 3
ENDMDL
MODEL 20
REMARK VINA RESULT:      -2.6     20.577     21.537
REMARK  3 active torsions:
REMARK  status: ('A' for Active; 'I' for Inactive)
REMARK    1  A    between atoms: N_1  and  C_9 
REMARK    2  A    between atoms: C_9  and  C_10 
REMARK    3  A    between atoms: C_10  and  N_11 
ROOT
ATOM      1  O   UNL d   2      78.433  68.921  88.033  0.00  0.00    -0.565 OA
ATOM      2  S   UNL d   2      77.672  68.068  87.099  0.00  0.00     0.261 S 
ATOM      3  O   UNL d   2      78.554  67.619  86.009  0.00  0.00    -0.565 OA
ATOM      4  O   UNL d   2      77.160  66.891  87.827  0.00  0.00    -0.565 OA
ATOM      5  O   UNL d   2      76.541  68.829  86.545  0.00  0.00    -0.565 OA
ENDROOT
TORSDOF 3
ENDMDL
