MODEL 1
REMARK VINA RESULT:      -4.6      0.000      0.000
REMARK  3 active torsions:
REMARK  status: ('A' for Active; 'I' for Inactive)
REMARK    1  A    between atoms: CG_2  and  CB_6 
REMARK    2  A    between atoms: CB_6  and  CA_7 
REMARK    3  A    between atoms: CA_7  and  C_8 
ROOT
ATOM      1  CB  HIS d   1      56.722  72.267  81.844  0.00  0.00    -0.059 C 
ENDROOT
BRANCH   1   2
ATOM      2  CG  HIS d   1      55.334  72.184  81.236  0.00  0.00     0.135 A 
ATOM      3  CD2 HIS d   1      54.175  72.602  81.870  0.00  0.00     0.127 A 
ATOM      4  NE2 HIS d   1      53.121  72.384  81.047  0.00  0.00    -0.220 NA
ATOM      5  CE1 HIS d   1      53.639  71.838  79.925  0.00  0.00     0.200 A 
ATOM      6  ND1 HIS d   1      54.977  71.709  80.021  0.00  0.00    -0.215 NA
ENDBRANCH   1   2
BRANCH   1   7
ATOM      7  CA  HIS d   1      58.065  72.541  82.244  0.00  0.00     0.445 C 
ATOM      8  N   HIS d   1      58.315  72.435  83.655  0.00  0.00     0.642 N 
BRANCH   7   9
ATOM      9  C   HIS d   1      59.192  72.924  81.276  0.00  0.00     0.236 C 
ATOM     10  O   HIS d   1      59.906  73.915  81.640  0.00  0.00    -0.645 OA
ATOM     11  OXT HIS d   1      59.324  72.245  80.219  0.00  0.00    -0.645 OA
ENDBRANCH   7   9
ENDBRANCH   1   7
TORSDOF 3
ENDMDL
MODEL 2
REMARK VINA RESULT:      -4.6     29.974     31.487
REMARK  3 active torsions:
REMARK  status: ('A' for Active; 'I' for Inactive)
REMARK    1  A    between atoms: CG_2  and  CB_6 
REMARK    2  A    between atoms: CB_6  and  CA_7 
REMARK    3  A    between atoms: CA_7  and  C_8 
ROOT
ATOM      1  CB  HIS d   1      82.307  81.771  96.399  0.00  0.00    -0.059 C 
ENDROOT
BRANCH   1   2
ATOM      2  CG  HIS d   1      80.910  82.176  96.826  0.00  0.00     0.135 A 
ATOM      3  CD2 HIS d   1      79.748  81.560  96.389  0.00  0.00     0.127 A 
ATOM      4  NE2 HIS d   1      78.684  82.170  96.966  0.00  0.00    -0.220 NA
ATOM      5  CE1 HIS d   1      79.198  83.145  97.745  0.00  0.00     0.200 A 
ATOM      6  ND1 HIS d   1      80.544  83.165  97.674  0.00  0.00    -0.215 NA
ENDBRANCH   1   2
BRANCH   1   7
ATOM      7  CA  HIS d   1      83.696  81.618  96.102  0.00  0.00     0.445 C 
ATOM      8  N   HIS d   1      83.986  81.047  94.816  0.00  0.00     0.642 N 
BRANCH   7   9
ATOM      9  C   HIS d   1      84.831  82.021  97.053  0.00  0.00     0.236 C 
ATOM     10  O   HIS d   1      85.582  81.065  97.436  0.00  0.00    -0.645 OA
ATOM     11  OXT HIS d   1      84.931  83.238  97.376  0.00  0.00    -0.645 OA
ENDBRANCH   7   9
ENDBRANCH   1   7
TORSDOF 3
ENDMDL
MODEL 3
REMARK VINA RESULT:      -4.6     20.223     21.667
REMARK  3 active torsions:
REMARK  status: ('A' for Active; 'I' for Inactive)
REMARK    1  A    between atoms: CG_2  and  CB_6 
REMARK    2  A    between atoms: CB_6  and  CA_7 
REMARK    3  A    between atoms: CA_7  and  C_8 
ROOT
ATOM      1  CB  HIS d   1      76.131  69.385  88.577  0.00  0.00    -0.059 C 
ENDROOT
BRANCH   1   2
ATOM      2  CG  HIS d   1      77.043  68.352  87.943  0.00  0.00     0.135 A 
ATOM      3  CD2 HIS d   1      77.481  68.394  86.629  0.00  0.00     0.127 A 
ATOM      4  NE2 HIS d   1      78.277  67.323  86.396  0.00  0.00    -0.220 NA
ATOM      5  CE1 HIS d   1      78.320  66.638  87.560  0.00  0.00     0.200 A 
ATOM      6  ND1 HIS d   1      77.580  67.246  88.508  0.00  0.00    -0.215 NA
ENDBRANCH   1   2
BRANCH   1   7
ATOM      7  CA  HIS d   1      75.492  70.449  89.283  0.00  0.00     0.445 C 
ATOM      8  N   HIS d   1      76.041  71.756  89.043  0.00  0.00     0.642 N 
BRANCH   7   9
ATOM      9  C   HIS d   1      74.305  70.262  90.237  0.00  0.00     0.236 C 
ATOM     10  O   HIS d   1      73.221  69.882  89.686  0.00  0.00    -0.645 OA
ATOM     11  OXT HIS d   1      74.488  70.494  91.465  0.00  0.00    -0.645 OA
ENDBRANCH   7   9
ENDBRANCH   1   7
TORSDOF 3
ENDMDL
MODEL 4
REMARK VINA RESULT:      -4.6     20.303     21.130
REMARK  3 active torsions:
REMARK  status: ('A' for Active; 'I' for Inactive)
REMARK    1  A    between atoms: CG_2  and  CB_6 
REMARK    2  A    between atoms: CB_6  and  CA_7 
REMARK    3  A    between atoms: CA_7  and  C_8 
ROOT
ATOM      1  CB  HIS d   1      76.036  69.576  88.245  0.00  0.00    -0.059 C 
ENDROOT
BRANCH   1   2
ATOM      2  CG  HIS d   1      75.320  70.443  89.263  0.00  0.00     0.135 A 
ATOM      3  CD2 HIS d   1      74.153  70.081  89.917  0.00  0.00     0.127 A 
ATOM      4  NE2 HIS d   1      73.790  71.084  90.753  0.00  0.00    -0.220 NA
ATOM      5  CE1 HIS d   1      74.728  72.043  90.605  0.00  0.00     0.200 A 
ATOM      6  ND1 HIS d   1      75.664  71.674  89.707  0.00  0.00    -0.215 NA
ENDBRANCH   1   2
BRANCH   1   7
ATOM      7  CA  HIS d   1      76.632  68.940  87.114  0.00  0.00     0.445 C 
ATOM      8  N   HIS d   1      76.120  69.360  85.838  0.00  0.00     0.642 N 
BRANCH   7   9
ATOM      9  C   HIS d   1      77.740  67.882  87.202  0.00  0.00     0.236 C 
ATOM     10  O   HIS d   1      77.974  67.437  88.373  0.00  0.00    -0.645 OA
ATOM     11  OXT HIS d   1      78.322  67.542  86.133  0.00  0.00    -0.645 OA
ENDBRANCH   7   9
ENDBRANCH   1   7
TORSDOF 3
ENDMDL
MODEL 5
REMARK VINA RESULT:      -4.4     30.026     31.757
REMARK  3 active torsions:
REMARK  status: ('A' for Active; 'I' for Inactive)
REMARK    1  A    between atoms: CG_2  and  CB_6 
REMARK    2  A    between atoms: CB_6  and  CA_7 
REMARK    3  A    between atoms: CA_7  and  C_8 
ROOT
ATOM      1  CB  HIS d   1      82.278  81.662  96.122  0.00  0.00    -0.059 C 
ENDROOT
BRANCH   1   2
ATOM      2  CG  HIS d   1      83.701  81.226  95.828  0.00  0.00     0.135 A 
ATOM      3  CD2 HIS d   1      84.167  80.868  94.573  0.00  0.00     0.127 A 
ATOM      4  NE2 HIS d   1      85.476  80.535  94.669  0.00  0.00    -0.220 NA
ATOM      5  CE1 HIS d   1      85.800  80.691  95.972  0.00  0.00     0.200 A 
ATOM      6  ND1 HIS d   1      84.738  81.109  96.689  0.00  0.00    -0.215 NA
ENDBRANCH   1   2
BRANCH   1   7
ATOM      7  CA  HIS d   1      80.934  81.864  96.560  0.00  0.00     0.445 C 
ATOM      8  N   HIS d   1      79.922  81.334  95.688  0.00  0.00     0.642 N 
BRANCH   7   9
ATOM      9  C   HIS d   1      80.548  82.588  97.857  0.00  0.00     0.236 C 
ATOM     10  O   HIS d   1      80.760  81.931  98.928  0.00  0.00    -0.645 OA
ATOM     11  OXT HIS d   1      80.063  83.751  97.767  0.00  0.00    -0.645 OA
ENDBRANCH   7   9
ENDBRANCH   1   7
TORSDOF 3
ENDMDL
MODEL 6
REMARK VINA RESULT:      -4.2     30.642     32.491
REMARK  3 active torsions:
REMARK  status: ('A' for Active; 'I' for Inactive)
REMARK    1  A    between atoms: CG_2  and  CB_6 
REMARK    2  A    between atoms: CB_6  and  CA_7 
REMARK    3  A    between atoms: CA_7  and  C_8 
ROOT
ATOM      1  CB  HIS d   1      72.846  90.107 103.412  0.00  0.00    -0.059 C 
ENDROOT
BRANCH   1   2
ATOM      2  CG  HIS d   1      72.364  89.527 102.096  0.00  0.00     0.135 A 
ATOM      3  CD2 HIS d   1      71.032  89.337 101.764  0.00  0.00     0.127 A 
ATOM      4  NE2 HIS d   1      70.961  88.803 100.521  0.00  0.00    -0.220 NA
ATOM      5  CE1 HIS d   1      72.239  88.670 100.105  0.00  0.00     0.200 A 
ATOM      6  ND1 HIS d   1      73.103  89.103 101.045  0.00  0.00    -0.215 NA
ENDBRANCH   1   2
BRANCH   1   7
ATOM      7  CA  HIS d   1      73.528  90.683 104.526  0.00  0.00     0.445 C 
ATOM      8  N   HIS d   1      72.789  90.689 105.758  0.00  0.00     0.642 N 
BRANCH   7   9
ATOM      9  C   HIS d   1      74.946  91.266 104.462  0.00  0.00     0.236 C 
ATOM     10  O   HIS d   1      75.270  92.015 105.441  0.00  0.00    -0.645 OA
ATOM     11  OXT HIS d   1      75.667  90.968 103.468  0.00  0.00    -0.645 OA
ENDBRANCH   7   9
ENDBRANCH   1   7
TORSDOF 3
ENDMDL
MODEL 7
REMARK VINA RESULT:      -4.0     20.840     21.766
REMARK  3 active torsions:
REMARK  status: ('A' for Active; 'I' for Inactive)
REMARK    1  A    between atoms: CG_2  and  CB_6 
REMARK    2  A    between atoms: CB_6  and  CA_7 
REMARK    3  A    between atoms: CA_7  and  C_8 
ROOT
ATOM      1  CB  HIS d   1      77.070  69.617  88.702  0.00  0.00    -0.059 C 
ENDROOT
BRANCH   1   2
ATOM      2  CG  HIS d   1      76.389  70.877  89.201  0.00  0.00     0.135 A 
ATOM      3  CD2 HIS d   1      76.636  72.149  88.708  0.00  0.00     0.127 A 
ATOM      4  NE2 HIS d   1      75.860  73.036  89.376  0.00  0.00    -0.220 NA
ATOM      5  CE1 HIS d   1      75.150  72.308  90.264  0.00  0.00     0.200 A 
ATOM      6  ND1 HIS d   1      75.457  70.999  90.174  0.00  0.00    -0.215 NA
ENDBRANCH   1   2
BRANCH   1   7
ATOM      7  CA  HIS d   1      77.511  68.419  88.062  0.00  0.00     0.445 C 
ATOM      8  N   HIS d   1      77.904  67.361  88.952  0.00  0.00     0.642 N 
BRANCH   7   9
ATOM      9  C   HIS d   1      77.579  68.228  86.541  0.00  0.00     0.236 C 
ATOM     10  O   HIS d   1      76.777  68.952  85.866  0.00  0.00    -0.645 OA
ATOM     11  OXT HIS d   1      78.404  67.387  86.084  0.00  0.00    -0.645 OA
ENDBRANCH   7   9
ENDBRANCH   1   7
TORSDOF 3
ENDMDL
MODEL 8
REMARK VINA RESULT:      -4.0     20.120     22.148
REMARK  3 active torsions:
REMARK  status: ('A' for Active; 'I' for Inactive)
REMARK    1  A    between atoms: CG_2  and  CB_6 
REMARK    2  A    between atoms: CB_6  and  CA_7 
REMARK    3  A    between atoms: CA_7  and  C_8 
ROOT
ATOM      1  CB  HIS d   1      76.451  69.718  89.828  0.00  0.00    -0.059 C 
ENDROOT
BRANCH   1   2
ATOM      2  CG  HIS d   1      77.237  68.431  89.999  0.00  0.00     0.135 A 
ATOM      3  CD2 HIS d   1      77.703  67.654  88.950  0.00  0.00     0.127 A 
ATOM      4  NE2 HIS d   1      78.360  66.583  89.456  0.00  0.00    -0.220 NA
ATOM      5  CE1 HIS d   1      78.293  66.711  90.799  0.00  0.00     0.200 A 
ATOM      6  ND1 HIS d   1      77.617  67.824  91.147  0.00  0.00    -0.215 NA
ENDBRANCH   1   2
BRANCH   1   7
ATOM      7  CA  HIS d   1      75.505  70.783  89.742  0.00  0.00     0.445 C 
ATOM      8  N   HIS d   1      75.997  71.989  89.133  0.00  0.00     0.642 N 
BRANCH   7   9
ATOM      9  C   HIS d   1      74.059  70.696  90.247  0.00  0.00     0.236 C 
ATOM     10  O   HIS d   1      73.682  71.666  90.983  0.00  0.00    -0.645 OA
ATOM     11  OXT HIS d   1      73.369  69.695  89.903  0.00  0.00    -0.645 OA
ENDBRANCH   7   9
ENDBRANCH   1   7
TORSDOF 3
ENDMDL
MODEL 9
REMARK VINA RESULT:      -4.0     22.331     24.043
REMARK  3 active torsions:
REMARK  status: ('A' for Active; 'I' for Inactive)
REMARK    1  A    between atoms: CG_2  and  CB_6 
REMARK    2  A    between atoms: CB_6  and  CA_7 
REMARK    3  A    between atoms: CA_7  and  C_8 
ROOT
ATOM      1  CB  HIS d   1      63.478  90.346  94.598  0.00  0.00    -0.059 C 
ENDROOT
BRANCH   1   2
ATOM      2  CG  HIS d   1      64.876  90.918  94.744  0.00  0.00     0.135 A 
ATOM      3  CD2 HIS d   1      65.610  90.901  95.919  0.00  0.00     0.127 A 
ATOM      4  NE2 HIS d   1      66.809  91.491  95.696  0.00  0.00    -0.220 NA
ATOM      5  CE1 HIS d   1      66.799  91.863  94.397  0.00  0.00     0.200 A 
ATOM      6  ND1 HIS d   1      65.637  91.524  93.804  0.00  0.00    -0.215 NA
ENDBRANCH   1   2
BRANCH   1   7
ATOM      7  CA  HIS d   1      62.259  89.693  94.245  0.00  0.00     0.445 C 
ATOM      8  N   HIS d   1      62.252  89.071  92.950  0.00  0.00     0.642 N 
BRANCH   7   9
ATOM      9  C   HIS d   1      61.019  89.633  95.148  0.00  0.00     0.236 C 
ATOM     10  O   HIS d   1      59.906  89.536  94.535  0.00  0.00    -0.645 OA
ATOM     11  OXT HIS d   1      61.193  89.683  96.398  0.00  0.00    -0.645 OA
ENDBRANCH   7   9
ENDBRANCH   1   7
TORSDOF 3
ENDMDL
MODEL 10
REMARK VINA RESULT:      -3.9     21.586     22.948
REMARK  3 active torsions:
REMARK  status: ('A' for Active; 'I' for Inactive)
REMARK    1  A    between atoms: CG_2  and  CB_6 
REMARK    2  A    between atoms: CB_6  and  CA_7 
REMARK    3  A    between atoms: CA_7  and  C_8 
ROOT
ATOM      1  CB  HIS d   1      77.708  68.813  88.731  0.00  0.00    -0.059 C 
ENDROOT
BRANCH   1   2
ATOM      2  CG  HIS d   1      77.583  70.321  88.625  0.00  0.00     0.135 A 
ATOM      3  CD2 HIS d   1      76.440  70.985  88.211  0.00  0.00     0.127 A 
ATOM      4  NE2 HIS d   1      76.675  72.319  88.234  0.00  0.00    -0.220 NA
ATOM      5  CE1 HIS d   1      77.950  72.460  88.657  0.00  0.00     0.200 A 
ATOM      6  ND1 HIS d   1      78.516  71.262  88.899  0.00  0.00    -0.215 NA
ENDBRANCH   1   2
BRANCH   1   7
ATOM      7  CA  HIS d   1      78.063  67.444  88.929  0.00  0.00     0.445 C 
ATOM      8  N   HIS d   1      78.022  66.994  90.293  0.00  0.00     0.642 N 
BRANCH   7   9
ATOM      9  C   HIS d   1      78.466  66.485  87.800  0.00  0.00     0.236 C 
ATOM     10  O   HIS d   1      78.333  66.949  86.621  0.00  0.00    -0.645 OA
ATOM     11  OXT HIS d   1      78.888  65.338  88.118  0.00  0.00    -0.645 OA
ENDBRANCH   7   9
ENDBRANCH   1   7
TORSDOF 3
ENDMDL
MODEL 11
REMARK VINA RESULT:      -3.9     21.237     22.984
REMARK  3 active torsions:
REMARK  status: ('A' for Active; 'I' for Inactive)
REMARK    1  A    between atoms: CG_2  and  CB_6 
REMARK    2  A    between atoms: CB_6  and  CA_7 
REMARK    3  A    between atoms: CA_7  and  C_8 
ROOT
ATOM      1  CB  HIS d   1      77.534  67.742  88.565  0.00  0.00    -0.059 C 
ENDROOT
BRANCH   1   2
ATOM      2  CG  HIS d   1      77.867  67.503  90.026  0.00  0.00     0.135 A 
ATOM      3  CD2 HIS d   1      78.831  66.614  90.474  0.00  0.00     0.127 A 
ATOM      4  NE2 HIS d   1      78.867  66.651  91.827  0.00  0.00    -0.220 NA
ATOM      5  CE1 HIS d   1      77.933  67.555  92.195  0.00  0.00     0.200 A 
ATOM      6  ND1 HIS d   1      77.317  68.082  91.118  0.00  0.00    -0.215 NA
ENDBRANCH   1   2
BRANCH   1   7
ATOM      7  CA  HIS d   1      77.287  68.215  87.241  0.00  0.00     0.445 C 
ATOM      8  N   HIS d   1      78.251  67.805  86.257  0.00  0.00     0.642 N 
BRANCH   7   9
ATOM      9  C   HIS d   1      76.096  69.099  86.849  0.00  0.00     0.236 C 
ATOM     10  O   HIS d   1      75.256  69.324  87.781  0.00  0.00    -0.645 OA
ATOM     11  OXT HIS d   1      76.039  69.526  85.661  0.00  0.00    -0.645 OA
ENDBRANCH   7   9
ENDBRANCH   1   7
TORSDOF 3
ENDMDL
MODEL 12
REMARK VINA RESULT:      -3.9     31.222     33.293
REMARK  3 active torsions:
REMARK  status: ('A' for Active; 'I' for Inactive)
REMARK    1  A    between atoms: CG_2  and  CB_6 
REMARK    2  A    between atoms: CB_6  and  CA_7 
REMARK    3  A    between atoms: CA_7  and  C_8 
ROOT
ATOM      1  CB  HIS d   1      72.889  89.667 103.954  0.00  0.00    -0.059 C 
ENDROOT
BRANCH   1   2
ATOM      2  CG  HIS d   1      73.542  90.546 105.003  0.00  0.00     0.135 A 
ATOM      3  CD2 HIS d   1      74.592  91.416 104.753  0.00  0.00     0.127 A 
ATOM      4  NE2 HIS d   1      74.929  92.041 105.906  0.00  0.00    -0.220 NA
ATOM      5  CE1 HIS d   1      74.090  91.554 106.846  0.00  0.00     0.200 A 
ATOM      6  ND1 HIS d   1      73.243  90.647 106.319  0.00  0.00    -0.215 NA
ENDBRANCH   1   2
BRANCH   1   7
ATOM      7  CA  HIS d   1      72.139  89.056 102.904  0.00  0.00     0.445 C 
ATOM      8  N   HIS d   1      71.341  87.928 103.300  0.00  0.00     0.642 N 
BRANCH   7   9
ATOM      9  C   HIS d   1      72.151  89.532 101.445  0.00  0.00     0.236 C 
ATOM     10  O   HIS d   1      72.893  88.856 100.660  0.00  0.00    -0.645 OA
ATOM     11  OXT HIS d   1      71.441  90.532 101.141  0.00  0.00    -0.645 OA
ENDBRANCH   7   9
ENDBRANCH   1   7
TORSDOF 3
ENDMDL
MODEL 13
REMARK VINA RESULT:      -3.9     19.903     21.251
REMARK  3 active torsions:
REMARK  status: ('A' for Active; 'I' for Inactive)
REMARK    1  A    between atoms: CG_2  and  CB_6 
REMARK    2  A    between atoms: CB_6  and  CA_7 
REMARK    3  A    between atoms: CA_7  and  C_8 
ROOT
ATOM      1  CB  HIS d   1      63.354  89.047  92.467  0.00  0.00    -0.059 C 
ENDROOT
BRANCH   1   2
ATOM      2  CG  HIS d   1      62.564  88.559  91.267  0.00  0.00     0.135 A 
ATOM      3  CD2 HIS d   1      63.126  88.211  90.049  0.00  0.00     0.127 A 
ATOM      4  NE2 HIS d   1      62.140  87.821  89.206  0.00  0.00    -0.220 NA
ATOM      5  CE1 HIS d   1      60.992  87.932  89.908  0.00  0.00     0.200 A 
ATOM      6  ND1 HIS d   1      61.228  88.377  91.158  0.00  0.00    -0.215 NA
ENDBRANCH   1   2
BRANCH   1   7
ATOM      7  CA  HIS d   1      63.921  89.701  93.602  0.00  0.00     0.445 C 
ATOM      8  N   HIS d   1      64.507  88.827  94.581  0.00  0.00     0.642 N 
BRANCH   7   9
ATOM      9  C   HIS d   1      63.928  91.222  93.808  0.00  0.00     0.236 C 
ATOM     10  O   HIS d   1      64.378  91.900  92.827  0.00  0.00    -0.645 OA
ATOM     11  OXT HIS d   1      63.498  91.675  94.906  0.00  0.00    -0.645 OA
ENDBRANCH   7   9
ENDBRANCH   1   7
TORSDOF 3
ENDMDL
MODEL 14
REMARK VINA RESULT:      -3.9     19.626     21.157
REMARK  3 active torsions:
REMARK  status: ('A' for Active; 'I' for Inactive)
REMARK    1  A    between atoms: CG_2  and  CB_6 
REMARK    2  A    between atoms: CB_6  and  CA_7 
REMARK    3  A    between atoms: CA_7  and  C_8 
ROOT
ATOM      1  CB  HIS d   1      62.992  88.950  91.944  0.00  0.00    -0.059 C 
ENDROOT
BRANCH   1   2
ATOM      2  CG  HIS d   1      62.848  89.986  93.043  0.00  0.00     0.135 A 
ATOM      3  CD2 HIS d   1      63.910  90.640  93.646  0.00  0.00     0.127 A 
ATOM      4  NE2 HIS d   1      63.427  91.494  94.580  0.00  0.00    -0.220 NA
ATOM      5  CE1 HIS d   1      62.084  91.358  94.542  0.00  0.00     0.200 A 
ATOM      6  ND1 HIS d   1      61.714  90.449  93.617  0.00  0.00    -0.215 NA
ENDBRANCH   1   2
BRANCH   1   7
ATOM      7  CA  HIS d   1      62.866  87.955  90.927  0.00  0.00     0.445 C 
ATOM      8  N   HIS d   1      63.928  86.988  90.885  0.00  0.00     0.642 N 
BRANCH   7   9
ATOM      9  C   HIS d   1      61.701  87.883  89.931  0.00  0.00     0.236 C 
ATOM     10  O   HIS d   1      60.652  88.519  90.275  0.00  0.00    -0.645 OA
ATOM     11  OXT HIS d   1      61.867  87.215  88.871  0.00  0.00    -0.645 OA
ENDBRANCH   7   9
ENDBRANCH   1   7
TORSDOF 3
ENDMDL
MODEL 15
REMARK VINA RESULT:      -3.8     29.572     31.497
REMARK  3 active torsions:
REMARK  status: ('A' for Active; 'I' for Inactive)
REMARK    1  A    between atoms: CG_2  and  CB_6 
REMARK    2  A    between atoms: CB_6  and  CA_7 
REMARK    3  A    between atoms: CA_7  and  C_8 
ROOT
ATOM      1  CB  HIS d   1      84.395  79.809  94.918  0.00  0.00    -0.059 C 
ENDROOT
BRANCH   1   2
ATOM      2  CG  HIS d   1      83.556  78.795  94.164  0.00  0.00     0.135 A 
ATOM      3  CD2 HIS d   1      82.400  79.100  93.463  0.00  0.00     0.127 A 
ATOM      4  NE2 HIS d   1      81.908  77.965  92.913  0.00  0.00    -0.220 NA
ATOM      5  CE1 HIS d   1      82.758  76.981  93.277  0.00  0.00     0.200 A 
ATOM      6  ND1 HIS d   1      83.763  77.464  94.035  0.00  0.00    -0.215 NA
ENDBRANCH   1   2
BRANCH   1   7
ATOM      7  CA  HIS d   1      85.075  80.939  95.466  0.00  0.00     0.445 C 
ATOM      8  N   HIS d   1      86.356  81.223  94.880  0.00  0.00     0.642 N 
BRANCH   7   9
ATOM      9  C   HIS d   1      84.520  81.815  96.597  0.00  0.00     0.236 C 
ATOM     10  O   HIS d   1      83.364  82.308  96.384  0.00  0.00    -0.645 OA
ATOM     11  OXT HIS d   1      85.233  81.977  97.627  0.00  0.00    -0.645 OA
ENDBRANCH   7   9
ENDBRANCH   1   7
TORSDOF 3
ENDMDL
MODEL 16
REMARK VINA RESULT:      -3.8     20.830     22.726
REMARK  3 active torsions:
REMARK  status: ('A' for Active; 'I' for Inactive)
REMARK    1  A    between atoms: CG_2  and  CB_6 
REMARK    2  A    between atoms: CB_6  and  CA_7 
REMARK    3  A    between atoms: CA_7  and  C_8 
ROOT
ATOM      1  CB  HIS d   1      77.236  68.719  88.261  0.00  0.00    -0.059 C 
ENDROOT
BRANCH   1   2
ATOM      2  CG  HIS d   1      78.043  67.471  88.567  0.00  0.00     0.135 A 
ATOM      3  CD2 HIS d   1      78.527  67.140  89.823  0.00  0.00     0.127 A 
ATOM      4  NE2 HIS d   1      79.200  65.968  89.739  0.00  0.00    -0.220 NA
ATOM      5  CE1 HIS d   1      79.124  65.593  88.443  0.00  0.00     0.200 A 
ATOM      6  ND1 HIS d   1      78.427  66.490  87.718  0.00  0.00    -0.215 NA
ENDBRANCH   1   2
BRANCH   1   7
ATOM      7  CA  HIS d   1      76.463  69.795  87.729  0.00  0.00     0.445 C 
ATOM      8  N   HIS d   1      75.707  69.479  86.549  0.00  0.00     0.642 N 
BRANCH   7   9
ATOM      9  C   HIS d   1      76.412  71.204  88.337  0.00  0.00     0.236 C 
ATOM     10  O   HIS d   1      76.390  72.158  87.493  0.00  0.00    -0.645 OA
ATOM     11  OXT HIS d   1      76.397  71.307  89.596  0.00  0.00    -0.645 OA
ENDBRANCH   7   9
ENDBRANCH   1   7
TORSDOF 3
ENDMDL
MODEL 17
REMARK VINA RESULT:      -3.8     21.023     23.569
REMARK  3 active torsions:
REMARK  status: ('A' for Active; 'I' for Inactive)
REMARK    1  A    between atoms: CG_2  and  CB_6 
REMARK    2  A    between atoms: CB_6  and  CA_7 
REMARK    3  A    between atoms: CA_7  and  C_8 
ROOT
ATOM      1  CB  HIS d   1      77.767  67.801  88.902  0.00  0.00    -0.059 C 
ENDROOT
BRANCH   1   2
ATOM      2  CG  HIS d   1      78.879  66.827  89.244  0.00  0.00     0.135 A 
ATOM      3  CD2 HIS d   1      79.752  66.978  90.310  0.00  0.00     0.127 A 
ATOM      4  NE2 HIS d   1      80.614  65.933  90.322  0.00  0.00    -0.220 NA
ATOM      5  CE1 HIS d   1      80.266  65.157  89.273  0.00  0.00     0.200 A 
ATOM      6  ND1 HIS d   1      79.217  65.682  88.608  0.00  0.00    -0.215 NA
ENDBRANCH   1   2
BRANCH   1   7
ATOM      7  CA  HIS d   1      76.833  68.725  88.343  0.00  0.00     0.445 C 
ATOM      8  N   HIS d   1      76.161  69.566  89.296  0.00  0.00     0.642 N 
BRANCH   7   9
ATOM      9  C   HIS d   1      76.534  68.849  86.843  0.00  0.00     0.236 C 
ATOM     10  O   HIS d   1      75.395  69.344  86.556  0.00  0.00    -0.645 OA
ATOM     11  OXT HIS d   1      77.417  68.460  86.027  0.00  0.00    -0.645 OA
ENDBRANCH   7   9
ENDBRANCH   1   7
TORSDOF 3
ENDMDL
MODEL 18
REMARK VINA RESULT:      -3.7     19.603     20.682
REMARK  3 active torsions:
REMARK  status: ('A' for Active; 'I' for Inactive)
REMARK    1  A    between atoms: CG_2  and  CB_6 
REMARK    2  A    between atoms: CB_6  and  CA_7 
REMARK    3  A    between atoms: CA_7  and  C_8 
ROOT
ATOM      1  CB  HIS d   1      75.031  71.042  90.415  0.00  0.00    -0.059 C 
ENDROOT
BRANCH   1   2
ATOM      2  CG  HIS d   1      74.344  72.347  90.767  0.00  0.00     0.135 A 
ATOM      3  CD2 HIS d   1      74.910  73.601  90.597  0.00  0.00     0.127 A 
ATOM      4  NE2 HIS d   1      74.027  74.541  91.011  0.00  0.00    -0.220 NA
ATOM      5  CE1 HIS d   1      72.936  73.862  91.428  0.00  0.00     0.200 A 
ATOM      6  ND1 HIS d   1      73.109  72.532  91.288  0.00  0.00    -0.215 NA
ENDBRANCH   1   2
BRANCH   1   7
ATOM      7  CA  HIS d   1      75.862  69.966  89.975  0.00  0.00     0.445 C 
ATOM      8  N   HIS d   1      76.233  69.025  90.996  0.00  0.00     0.642 N 
BRANCH   7   9
ATOM      9  C   HIS d   1      76.348  69.786  88.530  0.00  0.00     0.236 C 
ATOM     10  O   HIS d   1      76.791  68.626  88.248  0.00  0.00    -0.645 OA
ATOM     11  OXT HIS d   1      76.273  70.778  87.751  0.00  0.00    -0.645 OA
ENDBRANCH   7   9
ENDBRANCH   1   7
TORSDOF 3
ENDMDL
MODEL 19
REMARK VINA RESULT:      -3.6     20.708     22.087
REMARK  3 active torsions:
REMARK  status: ('A' for Active; 'I' for Inactive)
REMARK    1  A    between atoms: CG_2  and  CB_6 
REMARK    2  A    between atoms: CB_6  and  CA_7 
REMARK    3  A    between atoms: CA_7  and  C_8 
ROOT
ATOM      1  CB  HIS d   1      76.657  69.616  88.912  0.00  0.00    -0.059 C 
ENDROOT
BRANCH   1   2
ATOM      2  CG  HIS d   1      77.350  68.295  88.636  0.00  0.00     0.135 A 
ATOM      3  CD2 HIS d   1      78.214  67.664  89.517  0.00  0.00     0.127 A 
ATOM      4  NE2 HIS d   1      78.650  66.511  88.955  0.00  0.00    -0.220 NA
ATOM      5  CE1 HIS d   1      78.055  66.445  87.744  0.00  0.00     0.200 A 
ATOM      6  ND1 HIS d   1      77.264  67.516  87.533  0.00  0.00    -0.215 NA
ENDBRANCH   1   2
BRANCH   1   7
ATOM      7  CA  HIS d   1      75.789  70.712  89.197  0.00  0.00     0.445 C 
ATOM      8  N   HIS d   1      74.562  70.363  89.858  0.00  0.00     0.642 N 
BRANCH   7   9
ATOM      9  C   HIS d   1      76.098  72.173  88.842  0.00  0.00     0.236 C 
ATOM     10  O   HIS d   1      75.677  73.036  89.680  0.00  0.00    -0.645 OA
ATOM     11  OXT HIS d   1      76.732  72.403  87.774  0.00  0.00    -0.645 OA
ENDBRANCH   7   9
ENDBRANCH   1   7
TORSDOF 3
ENDMDL
MODEL 20
REMARK VINA RESULT:      -3.6     22.059     22.866
REMARK  3 active torsions:
REMARK  status: ('A' for Active; 'I' for Inactive)
REMARK    1  A    between atoms: CG_2  and  CB_6 
REMARK    2  A    between atoms: CB_6  and  CA_7 
REMARK    3  A    between atoms: CA_7  and  C_8 
ROOT
ATOM      1  CB  HIS d   1      77.373  68.286  90.490  0.00  0.00    -0.059 C 
ENDROOT
BRANCH   1   2
ATOM      2  CG  HIS d   1      77.631  67.911  89.043  0.00  0.00     0.135 A 
ATOM      3  CD2 HIS d   1      77.458  68.770  87.969  0.00  0.00     0.127 A 
ATOM      4  NE2 HIS d   1      77.777  68.115  86.827  0.00  0.00    -0.220 NA
ATOM      5  CE1 HIS d   1      78.139  66.870  87.207  0.00  0.00     0.200 A 
ATOM      6  ND1 HIS d   1      78.057  66.728  88.544  0.00  0.00    -0.215 NA
ENDBRANCH   1   2
BRANCH   1   7
ATOM      7  CA  HIS d   1      76.881  68.573  91.799  0.00  0.00     0.445 C 
ATOM      8  N   HIS d   1      77.802  68.303  92.869  0.00  0.00     0.642 N 
BRANCH   7   9
ATOM      9  C   HIS d   1      75.482  69.130  92.093  0.00  0.00     0.236 C 
ATOM     10  O   HIS d   1      75.138  69.115  93.320  0.00  0.00    -0.645 OA
ATOM     11  OXT HIS d   1      74.794  69.550  91.120  0.00  0.00    -0.645 OA
ENDBRANCH   7   9
ENDBRANCH   1   7
TORSDOF 3
ENDMDL
