MODEL 1
REMARK VINA RESULT:      -1.2      0.000      0.000
REMARK  4 active torsions:
REMARK  status: ('A' for Active; 'I' for Inactive)
REMARK    1  A    between atoms: C_5  and  O_6 
REMARK    2  A    between atoms: O_6  and  C_7 
REMARK    3  A    between atoms: C_7  and  C_9 
REMARK    4  A    between atoms: C_9  and  C_10 
ROOT
ATOM      1 BR   UNL d   1      79.536  77.928  82.225  0.00  0.00     0.000 Br
ENDROOT
TORSDOF 4
ENDMDL
MODEL 2
REMARK VINA RESULT:      -1.1     17.408     17.408
REMARK  4 active torsions:
REMARK  status: ('A' for Active; 'I' for Inactive)
REMARK    1  A    between atoms: C_5  and  O_6 
REMARK    2  A    between atoms: O_6  and  C_7 
REMARK    3  A    between atoms: C_7  and  C_9 
REMARK    4  A    between atoms: C_9  and  C_10 
ROOT
ATOM      1 BR   UNL d   1      66.922  88.871  77.306  0.00  0.00     0.000 Br
ENDROOT
TORSDOF 4
ENDMDL
MODEL 3
REMARK VINA RESULT:      -0.9     24.559     24.559
REMARK  4 active torsions:
REMARK  status: ('A' for Active; 'I' for Inactive)
REMARK    1  A    between atoms: C_5  and  O_6 
REMARK    2  A    between atoms: O_6  and  C_7 
REMARK    3  A    between atoms: C_7  and  C_9 
REMARK    4  A    between atoms: C_9  and  C_10 
ROOT
ATOM      1 BR   UNL d   1      79.844  78.862 106.764  0.00  0.00     0.000 Br
ENDROOT
TORSDOF 4
ENDMDL
MODEL 4
REMARK VINA RESULT:      -0.9     14.641     14.641
REMARK  4 active torsions:
REMARK  status: ('A' for Active; 'I' for Inactive)
REMARK    1  A    between atoms: C_5  and  O_6 
REMARK    2  A    between atoms: O_6  and  C_7 
REMARK    3  A    between atoms: C_7  and  C_9 
REMARK    4  A    between atoms: C_9  and  C_10 
ROOT
ATOM      1 BR   UNL d   1      86.009  80.804  95.038  0.00  0.00     0.000 Br
ENDROOT
TORSDOF 4
ENDMDL
MODEL 5
REMARK VINA RESULT:      -0.9     24.052     24.052
REMARK  4 active torsions:
REMARK  status: ('A' for Active; 'I' for Inactive)
REMARK    1  A    between atoms: C_5  and  O_6 
REMARK    2  A    between atoms: O_6  and  C_7 
REMARK    3  A    between atoms: C_7  and  C_9 
REMARK    4  A    between atoms: C_9  and  C_10 
ROOT
ATOM      1 BR   UNL d   1      79.848  76.253 106.216  0.00  0.00     0.000 Br
ENDROOT
TORSDOF 4
ENDMDL
MODEL 6
REMARK VINA RESULT:      -0.9     22.114     22.114
REMARK  4 active torsions:
REMARK  status: ('A' for Active; 'I' for Inactive)
REMARK    1  A    between atoms: C_5  and  O_6 
REMARK    2  A    between atoms: O_6  and  C_7 
REMARK    3  A    between atoms: C_7  and  C_9 
REMARK    4  A    between atoms: C_9  and  C_10 
ROOT
ATOM      1 BR   UNL d   1      58.134  72.914  84.639  0.00  0.00     0.000 Br
ENDROOT
TORSDOF 4
ENDMDL
MODEL 7
REMARK VINA RESULT:      -0.8     16.498     16.498
REMARK  4 active torsions:
REMARK  status: ('A' for Active; 'I' for Inactive)
REMARK    1  A    between atoms: C_5  and  O_6 
REMARK    2  A    between atoms: O_6  and  C_7 
REMARK    3  A    between atoms: C_7  and  C_9 
REMARK    4  A    between atoms: C_9  and  C_10 
ROOT
ATOM      1 BR   UNL d   1      84.846  82.371  97.200  0.00  0.00     0.000 Br
ENDROOT
TORSDOF 4
ENDMDL
MODEL 8
REMARK VINA RESULT:      -0.8     27.480     27.480
REMARK  4 active torsions:
REMARK  status: ('A' for Active; 'I' for Inactive)
REMARK    1  A    between atoms: C_5  and  O_6 
REMARK    2  A    between atoms: O_6  and  C_7 
REMARK    3  A    between atoms: C_7  and  C_9 
REMARK    4  A    between atoms: C_9  and  C_10 
ROOT
ATOM      1 BR   UNL d   1      73.595  58.300 100.517  0.00  0.00     0.000 Br
ENDROOT
TORSDOF 4
ENDMDL
MODEL 9
REMARK VINA RESULT:      -0.8     11.164     11.164
REMARK  4 active torsions:
REMARK  status: ('A' for Active; 'I' for Inactive)
REMARK    1  A    between atoms: C_5  and  O_6 
REMARK    2  A    between atoms: O_6  and  C_7 
REMARK    3  A    between atoms: C_7  and  C_9 
REMARK    4  A    between atoms: C_9  and  C_10 
ROOT
ATOM      1 BR   UNL d   1      78.110  67.736  86.552  0.00  0.00     0.000 Br
ENDROOT
TORSDOF 4
ENDMDL
MODEL 10
REMARK VINA RESULT:      -0.8     25.454     25.454
REMARK  4 active torsions:
REMARK  status: ('A' for Active; 'I' for Inactive)
REMARK    1  A    between atoms: C_5  and  O_6 
REMARK    2  A    between atoms: O_6  and  C_7 
REMARK    3  A    between atoms: C_7  and  C_9 
REMARK    4  A    between atoms: C_9  and  C_10 
ROOT
ATOM      1 BR   UNL d   1      70.857  75.917 106.069  0.00  0.00     0.000 Br
ENDROOT
TORSDOF 4
ENDMDL
MODEL 11
REMARK VINA RESULT:      -0.8     29.082     29.082
REMARK  4 active torsions:
REMARK  status: ('A' for Active; 'I' for Inactive)
REMARK    1  A    between atoms: C_5  and  O_6 
REMARK    2  A    between atoms: O_6  and  C_7 
REMARK    3  A    between atoms: C_7  and  C_9 
REMARK    4  A    between atoms: C_9  and  C_10 
ROOT
ATOM      1 BR   UNL d   1      56.730  71.099  98.930  0.00  0.00     0.000 Br
ENDROOT
TORSDOF 4
ENDMDL
MODEL 12
REMARK VINA RESULT:      -0.7     10.682     10.682
REMARK  4 active torsions:
REMARK  status: ('A' for Active; 'I' for Inactive)
REMARK    1  A    between atoms: C_5  and  O_6 
REMARK    2  A    between atoms: O_6  and  C_7 
REMARK    3  A    between atoms: C_7  and  C_9 
REMARK    4  A    between atoms: C_9  and  C_10 
ROOT
ATOM      1 BR   UNL d   1      75.904  69.100  87.019  0.00  0.00     0.000 Br
ENDROOT
TORSDOF 4
ENDMDL
MODEL 13
REMARK VINA RESULT:      -0.7     18.731     18.731
REMARK  4 active torsions:
REMARK  status: ('A' for Active; 'I' for Inactive)
REMARK    1  A    between atoms: C_5  and  O_6 
REMARK    2  A    between atoms: O_6  and  C_7 
REMARK    3  A    between atoms: C_7  and  C_9 
REMARK    4  A    between atoms: C_9  and  C_10 
ROOT
ATOM      1 BR   UNL d   1      63.722  72.399  90.604  0.00  0.00     0.000 Br
ENDROOT
TORSDOF 4
ENDMDL
MODEL 14
REMARK VINA RESULT:      -0.7     26.542     26.542
REMARK  4 active torsions:
REMARK  status: ('A' for Active; 'I' for Inactive)
REMARK    1  A    between atoms: C_5  and  O_6 
REMARK    2  A    between atoms: O_6  and  C_7 
REMARK    3  A    between atoms: C_7  and  C_9 
REMARK    4  A    between atoms: C_9  and  C_10 
ROOT
ATOM      1 BR   UNL d   1      53.473  72.916  81.890  0.00  0.00     0.000 Br
ENDROOT
TORSDOF 4
ENDMDL
MODEL 15
REMARK VINA RESULT:      -0.7     20.993     20.993
REMARK  4 active torsions:
REMARK  status: ('A' for Active; 'I' for Inactive)
REMARK    1  A    between atoms: C_5  and  O_6 
REMARK    2  A    between atoms: O_6  and  C_7 
REMARK    3  A    between atoms: C_7  and  C_9 
REMARK    4  A    between atoms: C_9  and  C_10 
ROOT
ATOM      1 BR   UNL d   1      71.839  58.927  86.745  0.00  0.00     0.000 Br
ENDROOT
TORSDOF 4
ENDMDL
MODEL 16
REMARK VINA RESULT:      -0.7     21.837     21.837
REMARK  4 active torsions:
REMARK  status: ('A' for Active; 'I' for Inactive)
REMARK    1  A    between atoms: C_5  and  O_6 
REMARK    2  A    between atoms: O_6  and  C_7 
REMARK    3  A    between atoms: C_7  and  C_9 
REMARK    4  A    between atoms: C_9  and  C_10 
ROOT
ATOM      1 BR   UNL d   1      61.516  88.033  89.298  0.00  0.00     0.000 Br
ENDROOT
TORSDOF 4
ENDMDL
MODEL 17
REMARK VINA RESULT:      -0.7     28.779     28.779
REMARK  4 active torsions:
REMARK  status: ('A' for Active; 'I' for Inactive)
REMARK    1  A    between atoms: C_5  and  O_6 
REMARK    2  A    between atoms: O_6  and  C_7 
REMARK    3  A    between atoms: C_7  and  C_9 
REMARK    4  A    between atoms: C_9  and  C_10 
ROOT
ATOM      1 BR   UNL d   1      55.018  73.149  96.518  0.00  0.00     0.000 Br
ENDROOT
TORSDOF 4
ENDMDL
MODEL 18
REMARK VINA RESULT:      -0.7     20.996     20.996
REMARK  4 active torsions:
REMARK  status: ('A' for Active; 'I' for Inactive)
REMARK    1  A    between atoms: C_5  and  O_6 
REMARK    2  A    between atoms: O_6  and  C_7 
REMARK    3  A    between atoms: C_7  and  C_9 
REMARK    4  A    between atoms: C_9  and  C_10 
ROOT
ATOM      1 BR   UNL d   1      71.434  59.710  88.805  0.00  0.00     0.000 Br
ENDROOT
TORSDOF 4
ENDMDL
MODEL 19
REMARK VINA RESULT:      -0.7     25.529     25.529
REMARK  4 active torsions:
REMARK  status: ('A' for Active; 'I' for Inactive)
REMARK    1  A    between atoms: C_5  and  O_6 
REMARK    2  A    between atoms: O_6  and  C_7 
REMARK    3  A    between atoms: C_7  and  C_9 
REMARK    4  A    between atoms: C_9  and  C_10 
ROOT
ATOM      1 BR   UNL d   1      61.543  60.451  77.478  0.00  0.00     0.000 Br
ENDROOT
TORSDOF 4
ENDMDL
MODEL 20
REMARK VINA RESULT:      -0.6     21.781     21.781
REMARK  4 active torsions:
REMARK  status: ('A' for Active; 'I' for Inactive)
REMARK    1  A    between atoms: C_5  and  O_6 
REMARK    2  A    between atoms: O_6  and  C_7 
REMARK    3  A    between atoms: C_7  and  C_9 
REMARK    4  A    between atoms: C_9  and  C_10 
ROOT
ATOM      1 BR   UNL d   1      63.950  90.254  91.146  0.00  0.00     0.000 Br
ENDROOT
TORSDOF 4
ENDMDL
