MODEL 1
REMARK VINA RESULT:      -5.6      0.000      0.000
REMARK  5 active torsions:
REMARK  status: ('A' for Active; 'I' for Inactive)
REMARK    1  A    between atoms: C_6  and  C_9 
REMARK    2  A    between atoms: C_9  and  C_10 
REMARK    3  A    between atoms: C_9  and  O_16 
REMARK    4  A    between atoms: C_10  and  N_11 
REMARK    5  A    between atoms: O_16  and  C_17 
ROOT
ATOM      1  C   UNL d   1      58.240  72.362  81.080  0.00  0.00     0.061 C 
ATOM      2  C   UNL d   1      58.215  72.474  82.609  0.00  0.00    -0.060 C 
ATOM      3  C   UNL d   1      58.189  72.549  83.938  0.00  0.00     0.092 C 
ENDROOT
BRANCH   1   4
ATOM      4  O   UNL d   1      58.236  72.246  79.749  0.00  0.00    -0.250 OA
BRANCH   4   5
ATOM      5  C   UNL d   1      57.005  71.768  79.325  0.00  0.00     0.162 C 
BRANCH   5   6
ATOM      6  C   UNL d   1      55.879  72.730  79.369  0.00  0.00     0.043 A 
ATOM      7  C   UNL d   1      54.923  72.876  80.390  0.00  0.00     0.061 A 
ATOM      8  C   UNL d   1      53.929  73.859  80.304  0.00  0.00     0.023 A 
ATOM      9 CL   UNL d   1      54.858  71.910  81.816  0.00  0.00    -0.082 Cl
ATOM     10  C   UNL d   1      53.870  74.710  79.212  0.00  0.00     0.059 A 
ATOM     11 CL   UNL d   1      52.656  75.916  79.130  0.00  0.00    -0.082 Cl
ATOM     12  C   UNL d   1      54.795  74.593  78.187  0.00  0.00     0.012 A 
ATOM     13  C   UNL d   1      55.779  73.612  78.277  0.00  0.00     0.004 A 
ENDBRANCH   5   6
BRANCH   5  14
ATOM     14  C   UNL d   1      57.011  70.516  78.652  0.00  0.00     0.008 C 
BRANCH  14  15
ATOM     15  N   UNL d   1      57.050  69.260  77.975  0.00  0.00    -0.250 N 
ATOM     16  C   UNL d   1      57.823  68.957  76.892  0.00  0.00     0.111 A 
ATOM     17  C   UNL d   1      57.523  67.639  76.615  0.00  0.00     0.120 A 
ATOM     18  N   UNL d   1      56.604  67.141  77.505  0.00  0.00    -0.222 NA
ATOM     19  C   UNL d   1      56.336  68.146  78.313  0.00  0.00     0.190 A 
ENDBRANCH  14  15
ENDBRANCH   5  14
ENDBRANCH   4   5
ENDBRANCH   1   4
TORSDOF 5
ENDMDL
MODEL 2
REMARK VINA RESULT:      -5.6      1.816      4.257
REMARK  5 active torsions:
REMARK  status: ('A' for Active; 'I' for Inactive)
REMARK    1  A    between atoms: C_6  and  C_9 
REMARK    2  A    between atoms: C_9  and  C_10 
REMARK    3  A    between atoms: C_9  and  O_16 
REMARK    4  A    between atoms: C_10  and  N_11 
REMARK    5  A    between atoms: O_16  and  C_17 
ROOT
ATOM      1  C   UNL d   1      55.962  73.080  77.467  0.00  0.00     0.061 C 
ATOM      2  C   UNL d   1      56.472  73.518  76.089  0.00  0.00    -0.060 C 
ATOM      3  C   UNL d   1      56.932  73.907  74.902  0.00  0.00     0.092 C 
ENDROOT
BRANCH   1   4
ATOM      4  O   UNL d   1      55.526  72.729  78.680  0.00  0.00    -0.250 OA
BRANCH   4   5
ATOM      5  C   UNL d   1      56.425  71.850  79.265  0.00  0.00     0.162 C 
BRANCH   5   6
ATOM      6  C   UNL d   1      56.787  72.126  80.674  0.00  0.00     0.043 A 
ATOM      7  C   UNL d   1      55.913  72.258  81.768  0.00  0.00     0.061 A 
ATOM      8  C   UNL d   1      56.408  72.489  83.057  0.00  0.00     0.023 A 
ATOM      9 CL   UNL d   1      54.195  72.152  81.666  0.00  0.00    -0.082 Cl
ATOM     10  C   UNL d   1      57.773  72.589  83.282  0.00  0.00     0.059 A 
ATOM     11 CL   UNL d   1      58.362  72.858  84.867  0.00  0.00    -0.082 Cl
ATOM     12  C   UNL d   1      58.662  72.466  82.227  0.00  0.00     0.012 A 
ATOM     13  C   UNL d   1      58.163  72.239  80.947  0.00  0.00     0.004 A 
ENDBRANCH   5   6
BRANCH   5  14
ATOM     14  C   UNL d   1      56.690  70.648  78.552  0.00  0.00     0.008 C 
BRANCH  14  15
ATOM     15  N   UNL d   1      56.989  69.446  77.844  0.00  0.00    -0.250 N 
ATOM     16  C   UNL d   1      57.745  69.349  76.713  0.00  0.00     0.111 A 
ATOM     17  C   UNL d   1      57.754  68.000  76.421  0.00  0.00     0.120 A 
ATOM     18  N   UNL d   1      57.037  67.286  77.350  0.00  0.00    -0.222 NA
ATOM     19  C   UNL d   1      56.585  68.189  78.195  0.00  0.00     0.190 A 
ENDBRANCH  14  15
ENDBRANCH   5  14
ENDBRANCH   4   5
ENDBRANCH   1   4
TORSDOF 5
ENDMDL
MODEL 3
REMARK VINA RESULT:      -5.6      2.568      5.385
REMARK  5 active torsions:
REMARK  status: ('A' for Active; 'I' for Inactive)
REMARK    1  A    between atoms: C_6  and  C_9 
REMARK    2  A    between atoms: C_9  and  C_10 
REMARK    3  A    between atoms: C_9  and  O_16 
REMARK    4  A    between atoms: C_10  and  N_11 
REMARK    5  A    between atoms: O_16  and  C_17 
ROOT
ATOM      1  C   UNL d   1      56.844  69.875  78.351  0.00  0.00     0.061 C 
ATOM      2  C   UNL d   1      55.913  68.671  78.161  0.00  0.00    -0.060 C 
ATOM      3  C   UNL d   1      55.123  67.613  77.988  0.00  0.00     0.092 C 
ENDROOT
BRANCH   1   4
ATOM      4  O   UNL d   1      57.666  70.919  78.485  0.00  0.00    -0.250 OA
BRANCH   4   5
ATOM      5  C   UNL d   1      56.975  71.992  79.027  0.00  0.00     0.162 C 
BRANCH   5   6
ATOM      6  C   UNL d   1      57.124  72.196  80.486  0.00  0.00     0.043 A 
ATOM      7  C   UNL d   1      56.099  72.272  81.446  0.00  0.00     0.061 A 
ATOM      8  C   UNL d   1      56.398  72.438  82.803  0.00  0.00     0.023 A 
ATOM      9 CL   UNL d   1      54.415  72.170  81.088  0.00  0.00    -0.082 Cl
ATOM     10  C   UNL d   1      57.714  72.526  83.230  0.00  0.00     0.059 A 
ATOM     11 CL   UNL d   1      58.063  72.715  84.896  0.00  0.00    -0.082 Cl
ATOM     12  C   UNL d   1      58.750  72.458  82.313  0.00  0.00     0.012 A 
ATOM     13  C   UNL d   1      58.445  72.296  80.964  0.00  0.00     0.004 A 
ENDBRANCH   5   6
BRANCH   5  14
ATOM     14  C   UNL d   1      56.428  72.924  78.103  0.00  0.00     0.008 C 
BRANCH  14  15
ATOM     15  N   UNL d   1      55.848  73.856  77.191  0.00  0.00    -0.250 N 
ATOM     16  C   UNL d   1      56.206  74.029  75.886  0.00  0.00     0.111 A 
ATOM     17  C   UNL d   1      55.363  75.020  75.427  0.00  0.00     0.120 A 
ATOM     18  N   UNL d   1      54.503  75.436  76.414  0.00  0.00    -0.222 NA
ATOM     19  C   UNL d   1      54.824  74.716  77.469  0.00  0.00     0.190 A 
ENDBRANCH  14  15
ENDBRANCH   5  14
ENDBRANCH   4   5
ENDBRANCH   1   4
TORSDOF 5
ENDMDL
MODEL 4
REMARK VINA RESULT:      -5.6     21.468     23.384
REMARK  5 active torsions:
REMARK  status: ('A' for Active; 'I' for Inactive)
REMARK    1  A    between atoms: C_6  and  C_9 
REMARK    2  A    between atoms: C_9  and  C_10 
REMARK    3  A    between atoms: C_9  and  O_16 
REMARK    4  A    between atoms: C_10  and  N_11 
REMARK    5  A    between atoms: O_16  and  C_17 
ROOT
ATOM      1  C   UNL d   1      78.241  73.250  88.778  0.00  0.00     0.061 C 
ATOM      2  C   UNL d   1      78.804  74.259  89.786  0.00  0.00    -0.060 C 
ATOM      3  C   UNL d   1      79.308  75.121  90.668  0.00  0.00     0.092 C 
ENDROOT
BRANCH   1   4
ATOM      4  O   UNL d   1      77.754  72.347  87.923  0.00  0.00    -0.250 OA
BRANCH   4   5
ATOM      5  C   UNL d   1      76.805  71.563  88.560  0.00  0.00     0.162 C 
BRANCH   5   6
ATOM      6  C   UNL d   1      77.011  70.098  88.486  0.00  0.00     0.043 A 
ATOM      7  C   UNL d   1      76.618  69.233  87.449  0.00  0.00     0.061 A 
ATOM      8  C   UNL d   1      76.913  67.865  87.506  0.00  0.00     0.023 A 
ATOM      9 CL   UNL d   1      75.766  69.727  86.034  0.00  0.00    -0.082 Cl
ATOM     10  C   UNL d   1      77.602  67.337  88.587  0.00  0.00     0.059 A 
ATOM     11 CL   UNL d   1      77.966  65.663  88.635  0.00  0.00    -0.082 Cl
ATOM     12  C   UNL d   1      78.002  68.158  89.628  0.00  0.00     0.012 A 
ATOM     13  C   UNL d   1      77.703  69.517  89.566  0.00  0.00     0.004 A 
ENDBRANCH   5   6
BRANCH   5  14
ATOM     14  C   UNL d   1      75.904  72.239  89.429  0.00  0.00     0.008 C 
BRANCH  14  15
ATOM     15  N   UNL d   1      74.976  72.896  90.292  0.00  0.00    -0.250 N 
ATOM     16  C   UNL d   1      74.994  74.218  90.630  0.00  0.00     0.111 A 
ATOM     17  C   UNL d   1      73.905  74.373  91.462  0.00  0.00     0.120 A 
ATOM     18  N   UNL d   1      73.229  73.188  91.622  0.00  0.00    -0.222 NA
ATOM     19  C   UNL d   1      73.904  72.314  90.905  0.00  0.00     0.190 A 
ENDBRANCH  14  15
ENDBRANCH   5  14
ENDBRANCH   4   5
ENDBRANCH   1   4
TORSDOF 5
ENDMDL
MODEL 5
REMARK VINA RESULT:      -5.5     21.743     23.520
REMARK  5 active torsions:
REMARK  status: ('A' for Active; 'I' for Inactive)
REMARK    1  A    between atoms: C_6  and  C_9 
REMARK    2  A    between atoms: C_9  and  C_10 
REMARK    3  A    between atoms: C_9  and  O_16 
REMARK    4  A    between atoms: C_10  and  N_11 
REMARK    5  A    between atoms: O_16  and  C_17 
ROOT
ATOM      1  C   UNL d   1      78.297  73.400  89.187  0.00  0.00     0.061 C 
ATOM      2  C   UNL d   1      78.870  74.233  90.341  0.00  0.00    -0.060 C 
ATOM      3  C   UNL d   1      79.385  74.943  91.342  0.00  0.00     0.092 C 
ENDROOT
BRANCH   1   4
ATOM      4  O   UNL d   1      77.808  72.647  88.198  0.00  0.00    -0.250 OA
BRANCH   4   5
ATOM      5  C   UNL d   1      76.848  71.782  88.699  0.00  0.00     0.162 C 
BRANCH   5   6
ATOM      6  C   UNL d   1      77.135  70.335  88.560  0.00  0.00     0.043 A 
ATOM      7  C   UNL d   1      78.029  69.566  89.327  0.00  0.00     0.061 A 
ATOM      8  C   UNL d   1      78.171  68.192  89.097  0.00  0.00     0.023 A 
ATOM      9 CL   UNL d   1      79.015  70.189  90.596  0.00  0.00    -0.082 Cl
ATOM     10  C   UNL d   1      77.430  67.561  88.109  0.00  0.00     0.059 A 
ATOM     11 CL   UNL d   1      77.607  65.877  87.851  0.00  0.00    -0.082 Cl
ATOM     12  C   UNL d   1      76.543  68.288  87.333  0.00  0.00     0.012 A 
ATOM     13  C   UNL d   1      76.408  69.655  87.565  0.00  0.00     0.004 A 
ENDBRANCH   5   6
BRANCH   5  14
ATOM     14  C   UNL d   1      75.840  72.360  89.519  0.00  0.00     0.008 C 
BRANCH  14  15
ATOM     15  N   UNL d   1      74.825  72.911  90.357  0.00  0.00    -0.250 N 
ATOM     16  C   UNL d   1      74.728  74.215  90.747  0.00  0.00     0.111 A 
ATOM     17  C   UNL d   1      73.591  74.255  91.528  0.00  0.00     0.120 A 
ATOM     18  N   UNL d   1      72.999  73.018  91.607  0.00  0.00    -0.222 NA
ATOM     19  C   UNL d   1      73.771  72.227  90.892  0.00  0.00     0.190 A 
ENDBRANCH  14  15
ENDBRANCH   5  14
ENDBRANCH   4   5
ENDBRANCH   1   4
TORSDOF 5
ENDMDL
MODEL 6
REMARK VINA RESULT:      -5.5     21.602     23.175
REMARK  5 active torsions:
REMARK  status: ('A' for Active; 'I' for Inactive)
REMARK    1  A    between atoms: C_6  and  C_9 
REMARK    2  A    between atoms: C_9  and  C_10 
REMARK    3  A    between atoms: C_9  and  O_16 
REMARK    4  A    between atoms: C_10  and  N_11 
REMARK    5  A    between atoms: O_16  and  C_17 
ROOT
ATOM      1  C   UNL d   1      75.040  69.225  92.317  0.00  0.00     0.061 C 
ATOM      2  C   UNL d   1      75.836  68.696  93.516  0.00  0.00    -0.060 C 
ATOM      3  C   UNL d   1      76.546  68.237  94.545  0.00  0.00     0.092 C 
ENDROOT
BRANCH   1   4
ATOM      4  O   UNL d   1      74.362  69.666  91.253  0.00  0.00    -0.250 OA
BRANCH   4   5
ATOM      5  C   UNL d   1      75.167  70.510  90.503  0.00  0.00     0.162 C 
BRANCH   5   6
ATOM      6  C   UNL d   1      76.040  69.858  89.499  0.00  0.00     0.043 A 
ATOM      7  C   UNL d   1      77.405  69.546  89.631  0.00  0.00     0.061 A 
ATOM      8  C   UNL d   1      78.094  68.896  88.600  0.00  0.00     0.023 A 
ATOM      9 CL   UNL d   1      78.359  69.903  91.021  0.00  0.00    -0.082 Cl
ATOM     10  C   UNL d   1      77.442  68.544  87.427  0.00  0.00     0.059 A 
ATOM     11 CL   UNL d   1      78.298  67.738  86.182  0.00  0.00    -0.082 Cl
ATOM     12  C   UNL d   1      76.099  68.839  87.262  0.00  0.00     0.012 A 
ATOM     13  C   UNL d   1      75.420  69.488  88.291  0.00  0.00     0.004 A 
ENDBRANCH   5   6
BRANCH   5  14
ATOM     14  C   UNL d   1      74.876  71.899  90.584  0.00  0.00     0.008 C 
BRANCH  14  15
ATOM     15  N   UNL d   1      74.619  73.301  90.667  0.00  0.00    -0.250 N 
ATOM     16  C   UNL d   1      73.486  73.879  91.162  0.00  0.00     0.111 A 
ATOM     17  C   UNL d   1      73.714  75.235  91.042  0.00  0.00     0.120 A 
ATOM     18  N   UNL d   1      74.952  75.485  90.503  0.00  0.00    -0.222 NA
ATOM     19  C   UNL d   1      75.473  74.296  90.285  0.00  0.00     0.190 A 
ENDBRANCH  14  15
ENDBRANCH   5  14
ENDBRANCH   4   5
ENDBRANCH   1   4
TORSDOF 5
ENDMDL
MODEL 7
REMARK VINA RESULT:      -5.4     21.084     22.174
REMARK  5 active torsions:
REMARK  status: ('A' for Active; 'I' for Inactive)
REMARK    1  A    between atoms: C_6  and  C_9 
REMARK    2  A    between atoms: C_9  and  C_10 
REMARK    3  A    between atoms: C_9  and  O_16 
REMARK    4  A    between atoms: C_10  and  N_11 
REMARK    5  A    between atoms: O_16  and  C_17 
ROOT
ATOM      1  C   UNL d   1      75.343  69.402  91.841  0.00  0.00     0.061 C 
ATOM      2  C   UNL d   1      76.490  68.484  92.282  0.00  0.00    -0.060 C 
ATOM      3  C   UNL d   1      77.496  67.705  92.673  0.00  0.00     0.092 C 
ENDROOT
BRANCH   1   4
ATOM      4  O   UNL d   1      74.367  70.223  91.445  0.00  0.00    -0.250 OA
BRANCH   4   5
ATOM      5  C   UNL d   1      74.793  70.968  90.356  0.00  0.00     0.162 C 
BRANCH   5   6
ATOM      6  C   UNL d   1      74.749  72.440  90.513  0.00  0.00     0.043 A 
ATOM      7  C   UNL d   1      75.724  73.370  90.111  0.00  0.00     0.061 A 
ATOM      8  C   UNL d   1      75.525  74.743  90.299  0.00  0.00     0.023 A 
ATOM      9 CL   UNL d   1      77.221  72.956  89.363  0.00  0.00    -0.082 Cl
ATOM     10  C   UNL d   1      74.359  75.214  90.883  0.00  0.00     0.059 A 
ATOM     11 CL   UNL d   1      74.126  76.898  91.094  0.00  0.00    -0.082 Cl
ATOM     12  C   UNL d   1      73.378  74.326  91.293  0.00  0.00     0.012 A 
ATOM     13  C   UNL d   1      73.584  72.962  91.106  0.00  0.00     0.004 A 
ENDBRANCH   5   6
BRANCH   5  14
ATOM     14  C   UNL d   1      75.470  70.256  89.328  0.00  0.00     0.008 C 
BRANCH  14  15
ATOM     15  N   UNL d   1      76.132  69.559  88.273  0.00  0.00    -0.250 N 
ATOM     16  C   UNL d   1      77.201  68.722  88.412  0.00  0.00     0.111 A 
ATOM     17  C   UNL d   1      77.468  68.291  87.129  0.00  0.00     0.120 A 
ATOM     18  N   UNL d   1      76.584  68.834  86.228  0.00  0.00    -0.222 NA
ATOM     19  C   UNL d   1      75.792  69.598  86.951  0.00  0.00     0.190 A 
ENDBRANCH  14  15
ENDBRANCH   5  14
ENDBRANCH   4   5
ENDBRANCH   1   4
TORSDOF 5
ENDMDL
MODEL 8
REMARK VINA RESULT:      -5.3     21.963     23.814
REMARK  5 active torsions:
REMARK  status: ('A' for Active; 'I' for Inactive)
REMARK    1  A    between atoms: C_6  and  C_9 
REMARK    2  A    between atoms: C_9  and  C_10 
REMARK    3  A    between atoms: C_9  and  O_16 
REMARK    4  A    between atoms: C_10  and  N_11 
REMARK    5  A    between atoms: O_16  and  C_17 
ROOT
ATOM      1  C   UNL d   1      74.646  71.857  90.342  0.00  0.00     0.061 C 
ATOM      2  C   UNL d   1      74.334  73.077  91.218  0.00  0.00    -0.060 C 
ATOM      3  C   UNL d   1      74.085  74.140  91.980  0.00  0.00     0.092 C 
ENDROOT
BRANCH   1   4
ATOM      4  O   UNL d   1      74.942  70.787  89.599  0.00  0.00    -0.250 OA
BRANCH   4   5
ATOM      5  C   UNL d   1      76.318  70.640  89.517  0.00  0.00     0.162 C 
BRANCH   5   6
ATOM      6  C   UNL d   1      76.811  69.295  89.140  0.00  0.00     0.043 A 
ATOM      7  C   UNL d   1      76.738  68.684  87.876  0.00  0.00     0.061 A 
ATOM      8  C   UNL d   1      77.280  67.411  87.663  0.00  0.00     0.023 A 
ATOM      9 CL   UNL d   1      76.008  69.396  86.486  0.00  0.00    -0.082 Cl
ATOM     10  C   UNL d   1      77.904  66.728  88.696  0.00  0.00     0.059 A 
ATOM     11 CL   UNL d   1      78.574  65.176  88.415  0.00  0.00    -0.082 Cl
ATOM     12  C   UNL d   1      77.992  67.298  89.955  0.00  0.00     0.012 A 
ATOM     13  C   UNL d   1      77.448  68.564  90.160  0.00  0.00     0.004 A 
ENDBRANCH   5   6
BRANCH   5  14
ATOM     14  C   UNL d   1      77.085  71.838  89.537  0.00  0.00     0.008 C 
BRANCH  14  15
ATOM     15  N   UNL d   1      77.834  73.052  89.580  0.00  0.00    -0.250 N 
ATOM     16  C   UNL d   1      78.641  73.532  88.590  0.00  0.00     0.111 A 
ATOM     17  C   UNL d   1      79.126  74.723  89.090  0.00  0.00     0.120 A 
ATOM     18  N   UNL d   1      78.626  74.976  90.344  0.00  0.00    -0.222 NA
ATOM     19  C   UNL d   1      77.850  73.946  90.613  0.00  0.00     0.190 A 
ENDBRANCH  14  15
ENDBRANCH   5  14
ENDBRANCH   4   5
ENDBRANCH   1   4
TORSDOF 5
ENDMDL
MODEL 9
REMARK VINA RESULT:      -5.3     20.760     23.410
REMARK  5 active torsions:
REMARK  status: ('A' for Active; 'I' for Inactive)
REMARK    1  A    between atoms: C_6  and  C_9 
REMARK    2  A    between atoms: C_9  and  C_10 
REMARK    3  A    between atoms: C_9  and  O_16 
REMARK    4  A    between atoms: C_10  and  N_11 
REMARK    5  A    between atoms: O_16  and  C_17 
ROOT
ATOM      1  C   UNL d   1      63.644  89.276  90.609  0.00  0.00     0.061 C 
ATOM      2  C   UNL d   1      62.508  88.593  89.837  0.00  0.00    -0.060 C 
ATOM      3  C   UNL d   1      61.534  87.980  89.167  0.00  0.00     0.092 C 
ENDROOT
BRANCH   1   4
ATOM      4  O   UNL d   1      64.655  89.857  91.261  0.00  0.00    -0.250 OA
BRANCH   4   5
ATOM      5  C   UNL d   1      64.971  89.118  92.390  0.00  0.00     0.162 C 
BRANCH   5   6
ATOM      6  C   UNL d   1      64.734  89.782  93.693  0.00  0.00     0.043 A 
ATOM      7  C   UNL d   1      63.500  89.978  94.339  0.00  0.00     0.061 A 
ATOM      8  C   UNL d   1      63.438  90.600  95.592  0.00  0.00     0.023 A 
ATOM      9 CL   UNL d   1      61.974  89.495  93.699  0.00  0.00    -0.082 Cl
ATOM     10  C   UNL d   1      64.594  91.031  96.224  0.00  0.00     0.059 A 
ATOM     11 CL   UNL d   1      64.501  91.778  97.763  0.00  0.00    -0.082 Cl
ATOM     12  C   UNL d   1      65.826  90.857  95.616  0.00  0.00     0.012 A 
ATOM     13  C   UNL d   1      65.881  90.241  94.369  0.00  0.00     0.004 A 
ENDBRANCH   5   6
BRANCH   5  14
ATOM     14  C   UNL d   1      65.225  87.733  92.191  0.00  0.00     0.008 C 
BRANCH  14  15
ATOM     15  N   UNL d   1      65.478  86.349  91.956  0.00  0.00    -0.250 N 
ATOM     16  C   UNL d   1      64.585  85.442  91.465  0.00  0.00     0.111 A 
ATOM     17  C   UNL d   1      65.293  84.259  91.407  0.00  0.00     0.120 A 
ATOM     18  N   UNL d   1      66.586  84.433  91.838  0.00  0.00    -0.222 NA
ATOM     19  C   UNL d   1      66.665  85.706  92.165  0.00  0.00     0.190 A 
ENDBRANCH  14  15
ENDBRANCH   5  14
ENDBRANCH   4   5
ENDBRANCH   1   4
TORSDOF 5
ENDMDL
MODEL 10
REMARK VINA RESULT:      -5.2     23.153     24.489
REMARK  5 active torsions:
REMARK  status: ('A' for Active; 'I' for Inactive)
REMARK    1  A    between atoms: C_6  and  C_9 
REMARK    2  A    between atoms: C_9  and  C_10 
REMARK    3  A    between atoms: C_9  and  O_16 
REMARK    4  A    between atoms: C_10  and  N_11 
REMARK    5  A    between atoms: O_16  and  C_17 
ROOT
ATOM      1  C   UNL d   1      75.498  69.415  91.855  0.00  0.00     0.061 C 
ATOM      2  C   UNL d   1      75.471  68.953  93.317  0.00  0.00    -0.060 C 
ATOM      3  C   UNL d   1      75.427  68.543  94.583  0.00  0.00     0.092 C 
ENDROOT
BRANCH   1   4
ATOM      4  O   UNL d   1      75.491  69.825  90.584  0.00  0.00    -0.250 OA
BRANCH   4   5
ATOM      5  C   UNL d   1      76.784  69.826  90.085  0.00  0.00     0.162 C 
BRANCH   5   6
ATOM      6  C   UNL d   1      77.296  68.526  89.592  0.00  0.00     0.043 A 
ATOM      7  C   UNL d   1      77.156  67.990  88.300  0.00  0.00     0.061 A 
ATOM      8  C   UNL d   1      77.726  66.753  87.972  0.00  0.00     0.023 A 
ATOM      9 CL   UNL d   1      76.307  68.755  87.009  0.00  0.00    -0.082 Cl
ATOM     10  C   UNL d   1      78.443  66.034  88.916  0.00  0.00     0.059 A 
ATOM     11 CL   UNL d   1      79.145  64.530  88.494  0.00  0.00    -0.082 Cl
ATOM     12  C   UNL d   1      78.599  66.531  90.199  0.00  0.00     0.012 A 
ATOM     13  C   UNL d   1      78.027  67.760  90.519  0.00  0.00     0.004 A 
ENDBRANCH   5   6
BRANCH   5  14
ATOM     14  C   UNL d   1      77.372  71.100  89.851  0.00  0.00     0.008 C 
BRANCH  14  15
ATOM     15  N   UNL d   1      77.974  72.378  89.650  0.00  0.00    -0.250 N 
ATOM     16  C   UNL d   1      78.197  73.320  90.612  0.00  0.00     0.111 A 
ATOM     17  C   UNL d   1      78.802  74.361  89.938  0.00  0.00     0.120 A 
ATOM     18  N   UNL d   1      78.958  74.067  88.606  0.00  0.00    -0.222 NA
ATOM     19  C   UNL d   1      78.445  72.863  88.463  0.00  0.00     0.190 A 
ENDBRANCH  14  15
ENDBRANCH   5  14
ENDBRANCH   4   5
ENDBRANCH   1   4
TORSDOF 5
ENDMDL
MODEL 11
REMARK VINA RESULT:      -5.2     21.913     23.637
REMARK  5 active torsions:
REMARK  status: ('A' for Active; 'I' for Inactive)
REMARK    1  A    between atoms: C_6  and  C_9 
REMARK    2  A    between atoms: C_9  and  C_10 
REMARK    3  A    between atoms: C_9  and  O_16 
REMARK    4  A    between atoms: C_10  and  N_11 
REMARK    5  A    between atoms: O_16  and  C_17 
ROOT
ATOM      1  C   UNL d   1      76.916  68.820  87.900  0.00  0.00     0.061 C 
ATOM      2  C   UNL d   1      77.191  67.312  87.895  0.00  0.00    -0.060 C 
ATOM      3  C   UNL d   1      77.446  66.005  87.877  0.00  0.00     0.092 C 
ENDROOT
BRANCH   1   4
ATOM      4  O   UNL d   1      76.681  70.135  87.872  0.00  0.00    -0.250 OA
BRANCH   4   5
ATOM      5  C   UNL d   1      77.049  70.703  89.082  0.00  0.00     0.162 C 
BRANCH   5   6
ATOM      6  C   UNL d   1      76.077  71.643  89.686  0.00  0.00     0.043 A 
ATOM      7  C   UNL d   1      74.872  71.322  90.337  0.00  0.00     0.061 A 
ATOM      8  C   UNL d   1      74.066  72.326  90.889  0.00  0.00     0.023 A 
ATOM      9 CL   UNL d   1      74.262  69.721  90.533  0.00  0.00    -0.082 Cl
ATOM     10  C   UNL d   1      74.443  73.657  90.808  0.00  0.00     0.059 A 
ATOM     11 CL   UNL d   1      73.453  74.871  91.500  0.00  0.00    -0.082 Cl
ATOM     12  C   UNL d   1      75.622  74.010  90.172  0.00  0.00     0.012 A 
ATOM     13  C   UNL d   1      76.417  73.007  89.623  0.00  0.00     0.004 A 
ENDBRANCH   5   6
BRANCH   5  14
ATOM     14  C   UNL d   1      78.173  70.127  89.736  0.00  0.00     0.008 C 
BRANCH  14  15
ATOM     15  N   UNL d   1      79.317  69.580  90.392  0.00  0.00    -0.250 N 
ATOM     16  C   UNL d   1      79.745  68.287  90.312  0.00  0.00     0.111 A 
ATOM     17  C   UNL d   1      80.878  68.252  91.098  0.00  0.00     0.120 A 
ATOM     18  N   UNL d   1      81.148  69.486  91.636  0.00  0.00    -0.222 NA
ATOM     19  C   UNL d   1      80.184  70.267  91.193  0.00  0.00     0.190 A 
ENDBRANCH  14  15
ENDBRANCH   5  14
ENDBRANCH   4   5
ENDBRANCH   1   4
TORSDOF 5
ENDMDL
MODEL 12
REMARK VINA RESULT:      -5.1     23.171     25.343
REMARK  5 active torsions:
REMARK  status: ('A' for Active; 'I' for Inactive)
REMARK    1  A    between atoms: C_6  and  C_9 
REMARK    2  A    between atoms: C_9  and  C_10 
REMARK    3  A    between atoms: C_9  and  O_16 
REMARK    4  A    between atoms: C_10  and  N_11 
REMARK    5  A    between atoms: O_16  and  C_17 
ROOT
ATOM      1  C   UNL d   1      80.421  66.870  91.590  0.00  0.00     0.061 C 
ATOM      2  C   UNL d   1      80.604  66.421  93.045  0.00  0.00    -0.060 C 
ATOM      3  C   UNL d   1      80.751  66.050  94.315  0.00  0.00     0.092 C 
ENDROOT
BRANCH   1   4
ATOM      4  O   UNL d   1      80.270  67.291  90.331  0.00  0.00    -0.250 OA
BRANCH   4   5
ATOM      5  C   UNL d   1      79.232  66.598  89.727  0.00  0.00     0.162 C 
BRANCH   5   6
ATOM      6  C   UNL d   1      78.299  67.403  88.905  0.00  0.00     0.043 A 
ATOM      7  C   UNL d   1      77.387  68.375  89.355  0.00  0.00     0.061 A 
ATOM      8  C   UNL d   1      76.588  69.081  88.449  0.00  0.00     0.023 A 
ATOM      9 CL   UNL d   1      77.153  68.804  91.008  0.00  0.00    -0.082 Cl
ATOM     10  C   UNL d   1      76.681  68.838  87.087  0.00  0.00     0.059 A 
ATOM     11 CL   UNL d   1      75.705  69.721  85.991  0.00  0.00    -0.082 Cl
ATOM     12  C   UNL d   1      77.567  67.887  86.608  0.00  0.00     0.012 A 
ATOM     13  C   UNL d   1      78.357  67.186  87.516  0.00  0.00     0.004 A 
ENDBRANCH   5   6
BRANCH   5  14
ATOM     14  C   UNL d   1      79.328  65.179  89.737  0.00  0.00     0.008 C 
BRANCH  14  15
ATOM     15  N   UNL d   1      79.437  63.756  89.716  0.00  0.00    -0.250 N 
ATOM     16  C   UNL d   1      79.533  62.977  88.600  0.00  0.00     0.111 A 
ATOM     17  C   UNL d   1      79.627  61.690  89.089  0.00  0.00     0.120 A 
ATOM     18  N   UNL d   1      79.603  61.676  90.462  0.00  0.00    -0.222 NA
ATOM     19  C   UNL d   1      79.484  62.941  90.811  0.00  0.00     0.190 A 
ENDBRANCH  14  15
ENDBRANCH   5  14
ENDBRANCH   4   5
ENDBRANCH   1   4
TORSDOF 5
ENDMDL
MODEL 13
REMARK VINA RESULT:      -4.9     29.675     31.201
REMARK  5 active torsions:
REMARK  status: ('A' for Active; 'I' for Inactive)
REMARK    1  A    between atoms: C_6  and  C_9 
REMARK    2  A    between atoms: C_9  and  C_10 
REMARK    3  A    between atoms: C_9  and  O_16 
REMARK    4  A    between atoms: C_10  and  N_11 
REMARK    5  A    between atoms: O_16  and  C_17 
ROOT
ATOM      1  C   UNL d   1      84.624  79.065  96.012  0.00  0.00     0.061 C 
ATOM      2  C   UNL d   1      85.549  80.125  95.403  0.00  0.00    -0.060 C 
ATOM      3  C   UNL d   1      86.338  81.048  94.856  0.00  0.00     0.092 C 
ENDROOT
BRANCH   1   4
ATOM      4  O   UNL d   1      83.815  78.127  96.513  0.00  0.00    -0.250 OA
BRANCH   4   5
ATOM      5  C   UNL d   1      82.646  78.071  95.770  0.00  0.00     0.162 C 
BRANCH   5   6
ATOM      6  C   UNL d   1      81.666  79.156  96.010  0.00  0.00     0.043 A 
ATOM      7  C   UNL d   1      81.391  80.256  95.177  0.00  0.00     0.061 A 
ATOM      8  C   UNL d   1      80.407  81.189  95.525  0.00  0.00     0.023 A 
ATOM      9 CL   UNL d   1      82.193  80.578  93.685  0.00  0.00    -0.082 Cl
ATOM     10  C   UNL d   1      79.681  81.045  96.697  0.00  0.00     0.059 A 
ATOM     11 CL   UNL d   1      78.471  82.190  97.101  0.00  0.00    -0.082 Cl
ATOM     12  C   UNL d   1      79.926  79.976  97.542  0.00  0.00     0.012 A 
ATOM     13  C   UNL d   1      80.908  79.053  97.191  0.00  0.00     0.004 A 
ENDBRANCH   5   6
BRANCH   5  14
ATOM     14  C   UNL d   1      82.629  77.153  94.684  0.00  0.00     0.008 C 
BRANCH  14  15
ATOM     15  N   UNL d   1      82.605  76.257  93.573  0.00  0.00    -0.250 N 
ATOM     16  C   UNL d   1      82.986  74.947  93.592  0.00  0.00     0.111 A 
ATOM     17  C   UNL d   1      82.772  74.509  92.301  0.00  0.00     0.120 A 
ATOM     18  N   UNL d   1      82.263  75.514  91.514  0.00  0.00    -0.222 NA
ATOM     19  C   UNL d   1      82.177  76.558  92.312  0.00  0.00     0.190 A 
ENDBRANCH  14  15
ENDBRANCH   5  14
ENDBRANCH   4   5
ENDBRANCH   1   4
TORSDOF 5
ENDMDL
MODEL 14
REMARK VINA RESULT:      -4.9     19.370     21.890
REMARK  5 active torsions:
REMARK  status: ('A' for Active; 'I' for Inactive)
REMARK    1  A    between atoms: C_6  and  C_9 
REMARK    2  A    between atoms: C_9  and  C_10 
REMARK    3  A    between atoms: C_9  and  O_16 
REMARK    4  A    between atoms: C_10  and  N_11 
REMARK    5  A    between atoms: O_16  and  C_17 
ROOT
ATOM      1  C   UNL d   1      62.957  90.296  93.426  0.00  0.00     0.061 C 
ATOM      2  C   UNL d   1      63.331  90.685  94.861  0.00  0.00    -0.060 C 
ATOM      3  C   UNL d   1      63.638  91.037  96.108  0.00  0.00     0.092 C 
ENDROOT
BRANCH   1   4
ATOM      4  O   UNL d   1      62.624  89.988  92.169  0.00  0.00    -0.250 OA
BRANCH   4   5
ATOM      5  C   UNL d   1      62.794  88.627  91.960  0.00  0.00     0.162 C 
BRANCH   5   6
ATOM      6  C   UNL d   1      61.669  87.922  91.305  0.00  0.00     0.043 A 
ATOM      7  C   UNL d   1      60.453  87.525  91.891  0.00  0.00     0.061 A 
ATOM      8  C   UNL d   1      59.464  86.889  91.131  0.00  0.00     0.023 A 
ATOM      9 CL   UNL d   1      60.043  87.765  93.549  0.00  0.00    -0.082 Cl
ATOM     10  C   UNL d   1      59.662  86.642  89.781  0.00  0.00     0.059 A 
ATOM     11 CL   UNL d   1      58.436  85.875  88.862  0.00  0.00    -0.082 Cl
ATOM     12  C   UNL d   1      60.848  87.017  89.171  0.00  0.00     0.012 A 
ATOM     13  C   UNL d   1      61.828  87.646  89.934  0.00  0.00     0.004 A 
ENDBRANCH   5   6
BRANCH   5  14
ATOM     14  C   UNL d   1      64.108  88.117  92.145  0.00  0.00     0.008 C 
BRANCH  14  15
ATOM     15  N   UNL d   1      65.415  87.573  92.330  0.00  0.00    -0.250 N 
ATOM     16  C   UNL d   1      66.386  88.081  93.142  0.00  0.00     0.111 A 
ATOM     17  C   UNL d   1      67.447  87.211  92.993  0.00  0.00     0.120 A 
ATOM     18  N   UNL d   1      67.136  86.192  92.126  0.00  0.00    -0.222 NA
ATOM     19  C   UNL d   1      65.901  86.442  91.740  0.00  0.00     0.190 A 
ENDBRANCH  14  15
ENDBRANCH   5  14
ENDBRANCH   4   5
ENDBRANCH   1   4
TORSDOF 5
ENDMDL
MODEL 15
REMARK VINA RESULT:      -4.8     20.506     22.446
REMARK  5 active torsions:
REMARK  status: ('A' for Active; 'I' for Inactive)
REMARK    1  A    between atoms: C_6  and  C_9 
REMARK    2  A    between atoms: C_9  and  C_10 
REMARK    3  A    between atoms: C_9  and  O_16 
REMARK    4  A    between atoms: C_10  and  N_11 
REMARK    5  A    between atoms: O_16  and  C_17 
ROOT
ATOM      1  C   UNL d   1      65.163  86.606  91.482  0.00  0.00     0.061 C 
ATOM      2  C   UNL d   1      66.292  86.052  92.360  0.00  0.00    -0.060 C 
ATOM      3  C   UNL d   1      67.286  85.570  93.103  0.00  0.00     0.092 C 
ENDROOT
BRANCH   1   4
ATOM      4  O   UNL d   1      64.186  87.064  90.695  0.00  0.00    -0.250 OA
BRANCH   4   5
ATOM      5  C   UNL d   1      63.430  88.000  91.385  0.00  0.00     0.162 C 
BRANCH   5   6
ATOM      6  C   UNL d   1      61.978  87.728  91.479  0.00  0.00     0.043 A 
ATOM      7  C   UNL d   1      61.033  87.772  90.438  0.00  0.00     0.061 A 
ATOM      8  C   UNL d   1      59.690  87.455  90.675  0.00  0.00     0.023 A 
ATOM      9 CL   UNL d   1      61.395  88.197  88.807  0.00  0.00    -0.082 Cl
ATOM     10  C   UNL d   1      59.264  87.088  91.943  0.00  0.00     0.059 A 
ATOM     11 CL   UNL d   1      57.620  86.692  92.213  0.00  0.00    -0.082 Cl
ATOM     12  C   UNL d   1      60.167  87.037  92.992  0.00  0.00     0.012 A 
ATOM     13  C   UNL d   1      61.501  87.355  92.750  0.00  0.00     0.004 A 
ENDBRANCH   5   6
BRANCH   5  14
ATOM     14  C   UNL d   1      64.153  88.961  92.146  0.00  0.00     0.008 C 
BRANCH  14  15
ATOM     15  N   UNL d   1      64.853  89.923  92.933  0.00  0.00    -0.250 N 
ATOM     16  C   UNL d   1      65.925  89.671  93.740  0.00  0.00     0.111 A 
ATOM     17  C   UNL d   1      66.251  90.902  94.271  0.00  0.00     0.120 A 
ATOM     18  N   UNL d   1      65.416  91.884  93.797  0.00  0.00    -0.222 NA
ATOM     19  C   UNL d   1      64.581  91.260  92.993  0.00  0.00     0.190 A 
ENDBRANCH  14  15
ENDBRANCH   5  14
ENDBRANCH   4   5
ENDBRANCH   1   4
TORSDOF 5
ENDMDL
MODEL 16
REMARK VINA RESULT:      -4.8     21.086     23.425
REMARK  5 active torsions:
REMARK  status: ('A' for Active; 'I' for Inactive)
REMARK    1  A    between atoms: C_6  and  C_9 
REMARK    2  A    between atoms: C_9  and  C_10 
REMARK    3  A    between atoms: C_9  and  O_16 
REMARK    4  A    between atoms: C_10  and  N_11 
REMARK    5  A    between atoms: O_16  and  C_17 
ROOT
ATOM      1  C   UNL d   1      65.058  90.648  94.502  0.00  0.00     0.061 C 
ATOM      2  C   UNL d   1      64.784  90.956  95.979  0.00  0.00    -0.060 C 
ATOM      3  C   UNL d   1      64.553  91.244  97.259  0.00  0.00     0.092 C 
ENDROOT
BRANCH   1   4
ATOM      4  O   UNL d   1      65.326  90.395  93.218  0.00  0.00    -0.250 OA
BRANCH   4   5
ATOM      5  C   UNL d   1      65.197  89.037  92.972  0.00  0.00     0.162 C 
BRANCH   5   6
ATOM      6  C   UNL d   1      64.028  88.628  92.158  0.00  0.00     0.043 A 
ATOM      7  C   UNL d   1      62.732  88.331  92.617  0.00  0.00     0.061 A 
ATOM      8  C   UNL d   1      61.715  87.987  91.718  0.00  0.00     0.023 A 
ATOM      9 CL   UNL d   1      62.252  88.354  94.272  0.00  0.00    -0.082 Cl
ATOM     10  C   UNL d   1      61.965  87.938  90.355  0.00  0.00     0.059 A 
ATOM     11 CL   UNL d   1      60.706  87.529  89.268  0.00  0.00    -0.082 Cl
ATOM     12  C   UNL d   1      63.230  88.222  89.868  0.00  0.00     0.012 A 
ATOM     13  C   UNL d   1      64.238  88.560  90.768  0.00  0.00     0.004 A 
ENDBRANCH   5   6
BRANCH   5  14
ATOM     14  C   UNL d   1      66.322  88.226  93.287  0.00  0.00     0.008 C 
BRANCH  14  15
ATOM     15  N   UNL d   1      67.429  87.386  93.609  0.00  0.00    -0.250 N 
ATOM     16  C   UNL d   1      67.920  87.151  94.860  0.00  0.00     0.111 A 
ATOM     17  C   UNL d   1      68.968  86.277  94.659  0.00  0.00     0.120 A 
ATOM     18  N   UNL d   1      69.112  85.972  93.327  0.00  0.00    -0.222 NA
ATOM     19  C   UNL d   1      68.169  86.661  92.719  0.00  0.00     0.190 A 
ENDBRANCH  14  15
ENDBRANCH   5  14
ENDBRANCH   4   5
ENDBRANCH   1   4
TORSDOF 5
ENDMDL
MODEL 17
REMARK VINA RESULT:      -4.7     29.323     31.462
REMARK  5 active torsions:
REMARK  status: ('A' for Active; 'I' for Inactive)
REMARK    1  A    between atoms: C_6  and  C_9 
REMARK    2  A    between atoms: C_9  and  C_10 
REMARK    3  A    between atoms: C_9  and  O_16 
REMARK    4  A    between atoms: C_10  and  N_11 
REMARK    5  A    between atoms: O_16  and  C_17 
ROOT
ATOM      1  C   UNL d   1      84.435  79.437  96.005  0.00  0.00     0.061 C 
ATOM      2  C   UNL d   1      85.508  80.339  95.382  0.00  0.00    -0.060 C 
ATOM      3  C   UNL d   1      86.424  81.128  94.825  0.00  0.00     0.092 C 
ENDROOT
BRANCH   1   4
ATOM      4  O   UNL d   1      83.494  78.639  96.518  0.00  0.00    -0.250 OA
BRANCH   4   5
ATOM      5  C   UNL d   1      82.275  78.905  95.913  0.00  0.00     0.162 C 
BRANCH   5   6
ATOM      6  C   UNL d   1      81.887  78.007  94.801  0.00  0.00     0.043 A 
ATOM      7  C   UNL d   1      80.956  76.953  94.842  0.00  0.00     0.061 A 
ATOM      8  C   UNL d   1      80.669  76.206  93.693  0.00  0.00     0.023 A 
ATOM      9 CL   UNL d   1      80.086  76.471  96.250  0.00  0.00    -0.082 Cl
ATOM     10  C   UNL d   1      81.294  76.494  92.489  0.00  0.00     0.059 A 
ATOM     11 CL   UNL d   1      80.921  75.579  91.090  0.00  0.00    -0.082 Cl
ATOM     12  C   UNL d   1      82.218  77.523  92.413  0.00  0.00     0.012 A 
ATOM     13  C   UNL d   1      82.501  78.260  93.561  0.00  0.00     0.004 A 
ENDBRANCH   5   6
BRANCH   5  14
ATOM     14  C   UNL d   1      81.420  79.821  96.586  0.00  0.00     0.008 C 
BRANCH  14  15
ATOM     15  N   UNL d   1      80.544  80.714  97.273  0.00  0.00    -0.250 N 
ATOM     16  C   UNL d   1      80.529  82.073  97.151  0.00  0.00     0.111 A 
ATOM     17  C   UNL d   1      79.514  82.481  97.992  0.00  0.00     0.120 A 
ATOM     18  N   UNL d   1      78.914  81.407  98.604  0.00  0.00    -0.222 NA
ATOM     19  C   UNL d   1      79.562  80.354  98.151  0.00  0.00     0.190 A 
ENDBRANCH  14  15
ENDBRANCH   5  14
ENDBRANCH   4   5
ENDBRANCH   1   4
TORSDOF 5
ENDMDL
MODEL 18
REMARK VINA RESULT:      -4.7     14.172     15.685
REMARK  5 active torsions:
REMARK  status: ('A' for Active; 'I' for Inactive)
REMARK    1  A    between atoms: C_6  and  C_9 
REMARK    2  A    between atoms: C_9  and  C_10 
REMARK    3  A    between atoms: C_9  and  O_16 
REMARK    4  A    between atoms: C_10  and  N_11 
REMARK    5  A    between atoms: O_16  and  C_17 
ROOT
ATOM      1  C   UNL d   1      61.633  73.613  91.937  0.00  0.00     0.061 C 
ATOM      2  C   UNL d   1      60.531  74.300  92.754  0.00  0.00    -0.060 C 
ATOM      3  C   UNL d   1      59.572  74.876  93.475  0.00  0.00     0.092 C 
ENDROOT
BRANCH   1   4
ATOM      4  O   UNL d   1      62.574  72.989  91.223  0.00  0.00    -0.250 OA
BRANCH   4   5
ATOM      5  C   UNL d   1      63.828  73.439  91.607  0.00  0.00     0.162 C 
BRANCH   5   6
ATOM      6  C   UNL d   1      64.284  74.708  90.995  0.00  0.00     0.043 A 
ATOM      7  C   UNL d   1      64.469  74.976  89.626  0.00  0.00     0.061 A 
ATOM      8  C   UNL d   1      64.877  76.244  89.193  0.00  0.00     0.023 A 
ATOM      9 CL   UNL d   1      64.224  73.829  88.363  0.00  0.00    -0.082 Cl
ATOM     10  C   UNL d   1      65.102  77.263  90.106  0.00  0.00     0.059 A 
ATOM     11 CL   UNL d   1      65.587  78.812  89.558  0.00  0.00    -0.082 Cl
ATOM     12  C   UNL d   1      64.932  77.034  91.462  0.00  0.00     0.012 A 
ATOM     13  C   UNL d   1      64.529  75.770  91.885  0.00  0.00     0.004 A 
ENDBRANCH   5   6
BRANCH   5  14
ATOM     14  C   UNL d   1      64.417  72.792  92.728  0.00  0.00     0.008 C 
BRANCH  14  15
ATOM     15  N   UNL d   1      64.994  72.113  93.843  0.00  0.00    -0.250 N 
ATOM     16  C   UNL d   1      66.309  72.143  94.207  0.00  0.00     0.111 A 
ATOM     17  C   UNL d   1      66.370  71.354  95.337  0.00  0.00     0.120 A 
ATOM     18  N   UNL d   1      65.130  70.863  95.667  0.00  0.00    -0.222 NA
ATOM     19  C   UNL d   1      64.321  71.337  94.743  0.00  0.00     0.190 A 
ENDBRANCH  14  15
ENDBRANCH   5  14
ENDBRANCH   4   5
ENDBRANCH   1   4
TORSDOF 5
ENDMDL
MODEL 19
REMARK VINA RESULT:      -4.6     14.390     16.834
REMARK  5 active torsions:
REMARK  status: ('A' for Active; 'I' for Inactive)
REMARK    1  A    between atoms: C_6  and  C_9 
REMARK    2  A    between atoms: C_9  and  C_10 
REMARK    3  A    between atoms: C_9  and  O_16 
REMARK    4  A    between atoms: C_10  and  N_11 
REMARK    5  A    between atoms: O_16  and  C_17 
ROOT
ATOM      1  C   UNL d   1      62.158  72.508  95.477  0.00  0.00     0.061 C 
ATOM      2  C   UNL d   1      62.210  72.490  97.009  0.00  0.00    -0.060 C 
ATOM      3  C   UNL d   1      62.241  72.457  98.340  0.00  0.00     0.092 C 
ENDROOT
BRANCH   1   4
ATOM      4  O   UNL d   1      62.080  72.522  94.143  0.00  0.00    -0.250 OA
BRANCH   4   5
ATOM      5  C   UNL d   1      63.355  72.491  93.599  0.00  0.00     0.162 C 
BRANCH   5   6
ATOM      6  C   UNL d   1      63.587  73.365  92.426  0.00  0.00     0.043 A 
ATOM      7  C   UNL d   1      63.618  74.771  92.403  0.00  0.00     0.061 A 
ATOM      8  C   UNL d   1      63.882  75.462  91.215  0.00  0.00     0.023 A 
ATOM      9 CL   UNL d   1      63.350  75.777  93.777  0.00  0.00    -0.082 Cl
ATOM     10  C   UNL d   1      64.123  74.773  90.036  0.00  0.00     0.059 A 
ATOM     11 CL   UNL d   1      64.458  75.635  88.594  0.00  0.00    -0.082 Cl
ATOM     12  C   UNL d   1      64.099  73.389  90.021  0.00  0.00     0.012 A 
ATOM     13  C   UNL d   1      63.832  72.707  91.206  0.00  0.00     0.004 A 
ENDBRANCH   5   6
BRANCH   5  14
ATOM     14  C   UNL d   1      64.358  71.845  94.374  0.00  0.00     0.008 C 
BRANCH  14  15
ATOM     15  N   UNL d   1      65.388  71.209  95.130  0.00  0.00    -0.250 N 
ATOM     16  C   UNL d   1      66.726  71.462  95.032  0.00  0.00     0.111 A 
ATOM     17  C   UNL d   1      67.302  70.620  95.961  0.00  0.00     0.120 A 
ATOM     18  N   UNL d   1      66.350  69.880  96.619  0.00  0.00    -0.222 NA
ATOM     19  C   UNL d   1      65.204  70.258  96.092  0.00  0.00     0.190 A 
ENDBRANCH  14  15
ENDBRANCH   5  14
ENDBRANCH   4   5
ENDBRANCH   1   4
TORSDOF 5
ENDMDL
MODEL 20
REMARK VINA RESULT:      -4.5     19.114     21.671
REMARK  5 active torsions:
REMARK  status: ('A' for Active; 'I' for Inactive)
REMARK    1  A    between atoms: C_6  and  C_9 
REMARK    2  A    between atoms: C_9  and  C_10 
REMARK    3  A    between atoms: C_9  and  O_16 
REMARK    4  A    between atoms: C_10  and  N_11 
REMARK    5  A    between atoms: O_16  and  C_17 
ROOT
ATOM      1  C   UNL d   1      63.813  85.153  92.531  0.00  0.00     0.061 C 
ATOM      2  C   UNL d   1      64.751  84.420  91.565  0.00  0.00    -0.060 C 
ATOM      3  C   UNL d   1      65.565  83.801  90.712  0.00  0.00     0.092 C 
ENDROOT
BRANCH   1   4
ATOM      4  O   UNL d   1      62.979  85.803  93.348  0.00  0.00    -0.250 OA
BRANCH   4   5
ATOM      5  C   UNL d   1      62.508  86.947  92.722  0.00  0.00     0.162 C 
BRANCH   5   6
ATOM      6  C   UNL d   1      61.534  86.739  91.626  0.00  0.00     0.043 A 
ATOM      7  C   UNL d   1      61.607  87.239  90.313  0.00  0.00     0.061 A 
ATOM      8  C   UNL d   1      60.618  86.929  89.372  0.00  0.00     0.023 A 
ATOM      9 CL   UNL d   1      62.871  88.252  89.722  0.00  0.00    -0.082 Cl
ATOM     10  C   UNL d   1      59.548  86.117  89.714  0.00  0.00     0.059 A 
ATOM     11 CL   UNL d   1      58.355  85.735  88.546  0.00  0.00    -0.082 Cl
ATOM     12  C   UNL d   1      59.443  85.608  90.998  0.00  0.00     0.012 A 
ATOM     13  C   UNL d   1      60.428  85.923  91.930  0.00  0.00     0.004 A 
ENDBRANCH   5   6
BRANCH   5  14
ATOM     14  C   UNL d   1      62.795  88.184  93.363  0.00  0.00     0.008 C 
BRANCH  14  15
ATOM     15  N   UNL d   1      63.078  89.441  93.977  0.00  0.00    -0.250 N 
ATOM     16  C   UNL d   1      63.176  89.674  95.318  0.00  0.00     0.111 A 
ATOM     17  C   UNL d   1      63.471  91.018  95.411  0.00  0.00     0.120 A 
ATOM     18  N   UNL d   1      63.565  91.594  94.167  0.00  0.00    -0.222 NA
ATOM     19  C   UNL d   1      63.319  90.615  93.322  0.00  0.00     0.190 A 
ENDBRANCH  14  15
ENDBRANCH   5  14
ENDBRANCH   4   5
ENDBRANCH   1   4
TORSDOF 5
ENDMDL
