MODEL 1
REMARK VINA RESULT:      -4.9      0.000      0.000
REMARK  1 active torsions:
REMARK  status: ('A' for Active; 'I' for Inactive)
REMARK    1  A    between atoms: C_1  and  CA_3 
ROOT
ATOM      1  CA  ILE d   1      83.854  80.585  96.096  0.00  0.00     0.137 C 
ATOM      2  N   ILE d   1      82.970  79.523  96.526  0.00  0.00    -0.094 NA
ATOM      3  CB  ILE d   1      85.015  80.211  95.335  0.00  0.00     0.027 C 
ATOM      4  CG1 ILE d   1      85.237  78.825  95.045  0.00  0.00    -0.130 C 
ATOM      5  CD1 ILE d   1      85.481  77.328  94.729  0.00  0.00     0.081 C 
ATOM      6  CG2 ILE d   1      86.103  81.101  94.760  0.00  0.00     0.040 C 
ENDROOT
BRANCH   1   7
ATOM      7  C   ILE d   1      83.507  82.009  96.468  0.00  0.00     0.225 C 
ATOM      8  O   ILE d   1      82.565  82.520  95.788  0.00  0.00    -0.643 OA
ATOM      9  OXT ILE d   1      84.158  82.558  97.392  0.00  0.00    -0.643 OA
ENDBRANCH   1   7
TORSDOF 1
ENDMDL
MODEL 2
REMARK VINA RESULT:      -4.4     31.394     31.956
REMARK  1 active torsions:
REMARK  status: ('A' for Active; 'I' for Inactive)
REMARK    1  A    between atoms: C_1  and  CA_3 
ROOT
ATOM      1  CA  ILE d   1      56.721  72.156  81.143  0.00  0.00     0.137 C 
ATOM      2  N   ILE d   1      55.573  72.078  82.021  0.00  0.00    -0.094 NA
ATOM      3  CB  ILE d   1      58.001  72.399  81.750  0.00  0.00     0.027 C 
ATOM      4  CG1 ILE d   1      58.077  72.549  83.173  0.00  0.00    -0.130 C 
ATOM      5  CD1 ILE d   1      58.163  72.713  84.712  0.00  0.00     0.081 C 
ATOM      6  CG2 ILE d   1      59.360  72.527  81.085  0.00  0.00     0.040 C 
ENDROOT
BRANCH   1   7
ATOM      7  C   ILE d   1      56.507  71.980  79.657  0.00  0.00     0.225 C 
ATOM      8  O   ILE d   1      55.947  70.890  79.328  0.00  0.00    -0.643 OA
ATOM      9  OXT ILE d   1      56.889  72.897  78.887  0.00  0.00    -0.643 OA
ENDBRANCH   1   7
TORSDOF 1
ENDMDL
MODEL 3
REMARK VINA RESULT:      -4.4      3.123      4.057
REMARK  1 active torsions:
REMARK  status: ('A' for Active; 'I' for Inactive)
REMARK    1  A    between atoms: C_1  and  CA_3 
ROOT
ATOM      1  CA  ILE d   1      81.515  82.085  97.049  0.00  0.00     0.137 C 
ATOM      2  N   ILE d   1      82.935  82.311  97.216  0.00  0.00    -0.094 NA
ATOM      3  CB  ILE d   1      81.089  81.407  95.855  0.00  0.00     0.027 C 
ATOM      4  CG1 ILE d   1      82.077  80.994  94.902  0.00  0.00    -0.130 C 
ATOM      5  CD1 ILE d   1      83.141  80.546  93.870  0.00  0.00     0.081 C 
ATOM      6  CG2 ILE d   1      79.682  81.039  95.421  0.00  0.00     0.040 C 
ENDROOT
BRANCH   1   7
ATOM      7  C   ILE d   1      80.575  82.571  98.129  0.00  0.00     0.225 C 
ATOM      8  O   ILE d   1      79.966  83.649  97.856  0.00  0.00    -0.643 OA
ATOM      9  OXT ILE d   1      80.474  81.890  99.181  0.00  0.00    -0.643 OA
ENDBRANCH   1   7
TORSDOF 1
ENDMDL
MODEL 4
REMARK VINA RESULT:      -4.2     20.269     21.356
REMARK  1 active torsions:
REMARK  status: ('A' for Active; 'I' for Inactive)
REMARK    1  A    between atoms: C_1  and  CA_3 
ROOT
ATOM      1  CA  ILE d   1      65.586  90.805  93.847  0.00  0.00     0.137 C 
ATOM      2  N   ILE d   1      64.661  91.832  93.419  0.00  0.00    -0.094 NA
ATOM      3  CB  ILE d   1      65.585  89.568  93.115  0.00  0.00     0.027 C 
ATOM      4  CG1 ILE d   1      64.681  89.414  92.014  0.00  0.00    -0.130 C 
ATOM      5  CD1 ILE d   1      63.704  89.243  90.823  0.00  0.00     0.081 C 
ATOM      6  CG2 ILE d   1      66.437  88.330  93.336  0.00  0.00     0.040 C 
ENDROOT
BRANCH   1   7
ATOM      7  C   ILE d   1      66.490  91.092  95.025  0.00  0.00     0.225 C 
ATOM      8  O   ILE d   1      66.289  90.356  96.038  0.00  0.00    -0.643 OA
ATOM      9  OXT ILE d   1      67.343  92.009  94.912  0.00  0.00    -0.643 OA
ENDBRANCH   1   7
TORSDOF 1
ENDMDL
MODEL 5
REMARK VINA RESULT:      -4.2     15.085     16.426
REMARK  1 active torsions:
REMARK  status: ('A' for Active; 'I' for Inactive)
REMARK    1  A    between atoms: C_1  and  CA_3 
ROOT
ATOM      1  CA  ILE d   1      77.515  68.474  88.041  0.00  0.00     0.137 C 
ATOM      2  N   ILE d   1      78.148  68.687  89.324  0.00  0.00    -0.094 NA
ATOM      3  CB  ILE d   1      76.528  69.432  87.624  0.00  0.00     0.027 C 
ATOM      4  CG1 ILE d   1      76.224  70.535  88.487  0.00  0.00    -0.130 C 
ATOM      5  CD1 ILE d   1      75.892  71.729  89.417  0.00  0.00     0.081 C 
ATOM      6  CG2 ILE d   1      75.711  69.461  86.344  0.00  0.00     0.040 C 
ENDROOT
BRANCH   1   7
ATOM      7  C   ILE d   1      77.925  67.269  87.224  0.00  0.00     0.225 C 
ATOM      8  O   ILE d   1      77.649  66.150  87.755  0.00  0.00    -0.643 OA
ATOM      9  OXT ILE d   1      78.489  67.464  86.117  0.00  0.00    -0.643 OA
ENDBRANCH   1   7
TORSDOF 1
ENDMDL
MODEL 6
REMARK VINA RESULT:      -4.1     21.321     22.543
REMARK  1 active torsions:
REMARK  status: ('A' for Active; 'I' for Inactive)
REMARK    1  A    between atoms: C_1  and  CA_3 
ROOT
ATOM      1  CA  ILE d   1      64.260  90.877  92.904  0.00  0.00     0.137 C 
ATOM      2  N   ILE d   1      63.218  91.702  92.333  0.00  0.00    -0.094 NA
ATOM      3  CB  ILE d   1      64.509  89.603  92.286  0.00  0.00     0.027 C 
ATOM      4  CG1 ILE d   1      63.724  89.219  91.150  0.00  0.00    -0.130 C 
ATOM      5  CD1 ILE d   1      62.878  88.799  89.922  0.00  0.00     0.081 C 
ATOM      6  CG2 ILE d   1      65.528  88.544  92.666  0.00  0.00     0.040 C 
ENDROOT
BRANCH   1   7
ATOM      7  C   ILE d   1      65.018  91.398  94.105  0.00  0.00     0.225 C 
ATOM      8  O   ILE d   1      66.134  91.936  93.834  0.00  0.00    -0.643 OA
ATOM      9  OXT ILE d   1      64.498  91.262  95.241  0.00  0.00    -0.643 OA
ENDBRANCH   1   7
TORSDOF 1
ENDMDL
MODEL 7
REMARK VINA RESULT:      -4.1     14.145     15.281
REMARK  1 active torsions:
REMARK  status: ('A' for Active; 'I' for Inactive)
REMARK    1  A    between atoms: C_1  and  CA_3 
ROOT
ATOM      1  CA  ILE d   1      76.745  70.082  88.714  0.00  0.00     0.137 C 
ATOM      2  N   ILE d   1      77.600  69.603  89.778  0.00  0.00    -0.094 NA
ATOM      3  CB  ILE d   1      76.572  69.229  87.570  0.00  0.00     0.027 C 
ATOM      4  CG1 ILE d   1      77.244  67.964  87.540  0.00  0.00    -0.130 C 
ATOM      5  CD1 ILE d   1      77.969  66.595  87.504  0.00  0.00     0.081 C 
ATOM      6  CG2 ILE d   1      75.744  69.470  86.320  0.00  0.00     0.040 C 
ENDROOT
BRANCH   1   7
ATOM      7  C   ILE d   1      76.093  71.438  88.867  0.00  0.00     0.225 C 
ATOM      8  O   ILE d   1      75.187  71.492  89.753  0.00  0.00    -0.643 OA
ATOM      9  OXT ILE d   1      76.486  72.375  88.127  0.00  0.00    -0.643 OA
ENDBRANCH   1   7
TORSDOF 1
ENDMDL
MODEL 8
REMARK VINA RESULT:      -4.0     21.468     21.918
REMARK  1 active torsions:
REMARK  status: ('A' for Active; 'I' for Inactive)
REMARK    1  A    between atoms: C_1  and  CA_3 
ROOT
ATOM      1  CA  ILE d   1      64.512  74.776  90.087  0.00  0.00     0.137 C 
ATOM      2  N   ILE d   1      65.150  75.544  91.134  0.00  0.00    -0.094 NA
ATOM      3  CB  ILE d   1      64.066  73.450  90.418  0.00  0.00     0.027 C 
ATOM      4  CG1 ILE d   1      64.272  72.961  91.750  0.00  0.00    -0.130 C 
ATOM      5  CD1 ILE d   1      64.493  72.428  93.188  0.00  0.00     0.081 C 
ATOM      6  CG2 ILE d   1      63.374  72.430  89.532  0.00  0.00     0.040 C 
ENDROOT
BRANCH   1   7
ATOM      7  C   ILE d   1      64.354  75.407  88.722  0.00  0.00     0.225 C 
ATOM      8  O   ILE d   1      63.523  76.364  88.674  0.00  0.00    -0.643 OA
ATOM      9  OXT ILE d   1      65.038  74.949  87.772  0.00  0.00    -0.643 OA
ENDBRANCH   1   7
TORSDOF 1
ENDMDL
MODEL 9
REMARK VINA RESULT:      -4.0     22.653     23.145
REMARK  1 active torsions:
REMARK  status: ('A' for Active; 'I' for Inactive)
REMARK    1  A    between atoms: C_1  and  CA_3 
ROOT
ATOM      1  CA  ILE d   1      64.425  91.131  93.440  0.00  0.00     0.137 C 
ATOM      2  N   ILE d   1      65.554  91.984  93.741  0.00  0.00    -0.094 NA
ATOM      3  CB  ILE d   1      63.653  90.641  94.549  0.00  0.00     0.027 C 
ATOM      4  CG1 ILE d   1      64.033  91.015  95.879  0.00  0.00    -0.130 C 
ATOM      5  CD1 ILE d   1      64.442  91.418  97.319  0.00  0.00     0.081 C 
ATOM      6  CG2 ILE d   1      62.430  89.740  94.534  0.00  0.00     0.040 C 
ENDROOT
BRANCH   1   7
ATOM      7  C   ILE d   1      64.128  90.809  91.993  0.00  0.00     0.225 C 
ATOM      8  O   ILE d   1      63.407  91.666  91.397  0.00  0.00    -0.643 OA
ATOM      9  OXT ILE d   1      64.604  89.752  91.508  0.00  0.00    -0.643 OA
ENDBRANCH   1   7
TORSDOF 1
ENDMDL
MODEL 10
REMARK VINA RESULT:      -3.9     15.499     16.046
REMARK  1 active torsions:
REMARK  status: ('A' for Active; 'I' for Inactive)
REMARK    1  A    between atoms: C_1  and  CA_3 
ROOT
ATOM      1  CA  ILE d   1      76.878  68.869  88.364  0.00  0.00     0.137 C 
ATOM      2  N   ILE d   1      76.667  68.886  89.795  0.00  0.00    -0.094 NA
ATOM      3  CB  ILE d   1      77.789  67.887  87.842  0.00  0.00     0.027 C 
ATOM      4  CG1 ILE d   1      78.435  66.987  88.751  0.00  0.00    -0.130 C 
ATOM      5  CD1 ILE d   1      79.136  66.012  89.731  0.00  0.00     0.081 C 
ATOM      6  CG2 ILE d   1      78.197  67.639  86.400  0.00  0.00     0.040 C 
ENDROOT
BRANCH   1   7
ATOM      7  C   ILE d   1      76.134  69.873  87.512  0.00  0.00     0.225 C 
ATOM      8  O   ILE d   1      76.412  71.086  87.759  0.00  0.00    -0.643 OA
ATOM      9  OXT ILE d   1      75.325  69.441  86.653  0.00  0.00    -0.643 OA
ENDBRANCH   1   7
TORSDOF 1
ENDMDL
MODEL 11
REMARK VINA RESULT:      -3.8     13.204     14.161
REMARK  1 active torsions:
REMARK  status: ('A' for Active; 'I' for Inactive)
REMARK    1  A    between atoms: C_1  and  CA_3 
ROOT
ATOM      1  CA  ILE d   1      74.364  72.058  90.567  0.00  0.00     0.137 C 
ATOM      2  N   ILE d   1      73.311  72.686  91.335  0.00  0.00    -0.094 NA
ATOM      3  CB  ILE d   1      75.401  72.909  90.049  0.00  0.00     0.027 C 
ATOM      4  CG1 ILE d   1      75.341  74.316  90.315  0.00  0.00    -0.130 C 
ATOM      5  CD1 ILE d   1      75.280  75.838  90.600  0.00  0.00     0.081 C 
ATOM      6  CG2 ILE d   1      76.616  72.533  89.220  0.00  0.00     0.040 C 
ENDROOT
BRANCH   1   7
ATOM      7  C   ILE d   1      74.313  70.562  90.357  0.00  0.00     0.225 C 
ATOM      8  O   ILE d   1      73.209  70.128  89.907  0.00  0.00    -0.643 OA
ATOM      9  OXT ILE d   1      75.335  69.886  90.635  0.00  0.00    -0.643 OA
ENDBRANCH   1   7
TORSDOF 1
ENDMDL
MODEL 12
REMARK VINA RESULT:      -3.8     23.522     24.301
REMARK  1 active torsions:
REMARK  status: ('A' for Active; 'I' for Inactive)
REMARK    1  A    between atoms: C_1  and  CA_3 
ROOT
ATOM      1  CA  ILE d   1      61.929  90.241  94.043  0.00  0.00     0.137 C 
ATOM      2  N   ILE d   1      62.220  91.637  93.802  0.00  0.00    -0.094 NA
ATOM      3  CB  ILE d   1      62.513  89.280  93.147  0.00  0.00     0.027 C 
ATOM      4  CG1 ILE d   1      63.342  89.745  92.075  0.00  0.00    -0.130 C 
ATOM      5  CD1 ILE d   1      64.239  90.245  90.914  0.00  0.00     0.081 C 
ATOM      6  CG2 ILE d   1      62.383  87.767  93.158  0.00  0.00     0.040 C 
ENDROOT
BRANCH   1   7
ATOM      7  C   ILE d   1      61.039  89.879  95.210  0.00  0.00     0.225 C 
ATOM      8  O   ILE d   1      61.534  90.129  96.351  0.00  0.00    -0.643 OA
ATOM      9  OXT ILE d   1      59.913  89.375  94.967  0.00  0.00    -0.643 OA
ENDBRANCH   1   7
TORSDOF 1
ENDMDL
MODEL 13
REMARK VINA RESULT:      -3.8     20.872     21.669
REMARK  1 active torsions:
REMARK  status: ('A' for Active; 'I' for Inactive)
REMARK    1  A    between atoms: C_1  and  CA_3 
ROOT
ATOM      1  CA  ILE d   1      65.280  89.888  93.353  0.00  0.00     0.137 C 
ATOM      2  N   ILE d   1      65.936  88.876  94.152  0.00  0.00    -0.094 NA
ATOM      3  CB  ILE d   1      64.728  89.479  92.090  0.00  0.00     0.027 C 
ATOM      4  CG1 ILE d   1      64.852  88.109  91.690  0.00  0.00    -0.130 C 
ATOM      5  CD1 ILE d   1      64.985  86.628  91.254  0.00  0.00     0.081 C 
ATOM      6  CG2 ILE d   1      63.993  90.315  91.057  0.00  0.00     0.040 C 
ENDROOT
BRANCH   1   7
ATOM      7  C   ILE d   1      65.215  91.301  93.889  0.00  0.00     0.225 C 
ATOM      8  O   ILE d   1      64.057  91.681  94.242  0.00  0.00    -0.643 OA
ATOM      9  OXT ILE d   1      66.279  91.968  93.940  0.00  0.00    -0.643 OA
ENDBRANCH   1   7
TORSDOF 1
ENDMDL
MODEL 14
REMARK VINA RESULT:      -3.8     14.663     15.114
REMARK  1 active torsions:
REMARK  status: ('A' for Active; 'I' for Inactive)
REMARK    1  A    between atoms: C_1  and  CA_3 
ROOT
ATOM      1  CA  ILE d   1      75.380  69.694  90.565  0.00  0.00     0.137 C 
ATOM      2  N   ILE d   1      75.739  69.191  91.873  0.00  0.00    -0.094 NA
ATOM      3  CB  ILE d   1      76.306  69.460  89.490  0.00  0.00     0.027 C 
ATOM      4  CG1 ILE d   1      77.520  68.749  89.763  0.00  0.00    -0.130 C 
ATOM      5  CD1 ILE d   1      78.835  67.982  90.054  0.00  0.00     0.081 C 
ATOM      6  CG2 ILE d   1      76.194  69.867  88.032  0.00  0.00     0.040 C 
ENDROOT
BRANCH   1   7
ATOM      7  C   ILE d   1      74.068  70.429  90.408  0.00  0.00     0.225 C 
ATOM      8  O   ILE d   1      74.002  71.535  91.026  0.00  0.00    -0.643 OA
ATOM      9  OXT ILE d   1      73.172  69.902  89.700  0.00  0.00    -0.643 OA
ENDBRANCH   1   7
TORSDOF 1
ENDMDL
MODEL 15
REMARK VINA RESULT:      -3.8     23.915     24.408
REMARK  1 active torsions:
REMARK  status: ('A' for Active; 'I' for Inactive)
REMARK    1  A    between atoms: C_1  and  CA_3 
ROOT
ATOM      1  CA  ILE d   1      61.874  90.073  94.882  0.00  0.00     0.137 C 
ATOM      2  N   ILE d   1      61.349  90.057  96.230  0.00  0.00    -0.094 NA
ATOM      3  CB  ILE d   1      61.683  88.892  94.084  0.00  0.00     0.027 C 
ATOM      4  CG1 ILE d   1      60.991  87.774  94.654  0.00  0.00    -0.130 C 
ATOM      5  CD1 ILE d   1      60.243  86.563  95.267  0.00  0.00     0.081 C 
ATOM      6  CG2 ILE d   1      62.122  88.628  92.654  0.00  0.00     0.040 C 
ENDROOT
BRANCH   1   7
ATOM      7  C   ILE d   1      62.586  91.316  94.398  0.00  0.00     0.225 C 
ATOM      8  O   ILE d   1      63.615  91.633  95.069  0.00  0.00    -0.643 OA
ATOM      9  OXT ILE d   1      62.117  91.921  93.401  0.00  0.00    -0.643 OA
ENDBRANCH   1   7
TORSDOF 1
ENDMDL
MODEL 16
REMARK VINA RESULT:      -3.8     20.291     20.959
REMARK  1 active torsions:
REMARK  status: ('A' for Active; 'I' for Inactive)
REMARK    1  A    between atoms: C_1  and  CA_3 
ROOT
ATOM      1  CA  ILE d   1      64.703  74.791  89.787  0.00  0.00     0.137 C 
ATOM      2  N   ILE d   1      63.997  73.543  89.975  0.00  0.00    -0.094 NA
ATOM      3  CB  ILE d   1      65.657  75.169  90.794  0.00  0.00     0.027 C 
ATOM      4  CG1 ILE d   1      65.859  74.304  91.918  0.00  0.00    -0.130 C 
ATOM      5  CD1 ILE d   1      66.079  73.371  93.135  0.00  0.00     0.081 C 
ATOM      6  CG2 ILE d   1      66.533  76.408  90.858  0.00  0.00     0.040 C 
ENDROOT
BRANCH   1   7
ATOM      7  C   ILE d   1      64.400  75.615  88.555  0.00  0.00     0.225 C 
ATOM      8  O   ILE d   1      65.055  75.283  87.521  0.00  0.00    -0.643 OA
ATOM      9  OXT ILE d   1      63.549  76.535  88.650  0.00  0.00    -0.643 OA
ENDBRANCH   1   7
TORSDOF 1
ENDMDL
MODEL 17
REMARK VINA RESULT:      -3.7     20.540     21.973
REMARK  1 active torsions:
REMARK  status: ('A' for Active; 'I' for Inactive)
REMARK    1  A    between atoms: C_1  and  CA_3 
ROOT
ATOM      1  CA  ILE d   1      64.246  90.107  93.263  0.00  0.00     0.137 C 
ATOM      2  N   ILE d   1      63.658  88.956  92.613  0.00  0.00    -0.094 NA
ATOM      3  CB  ILE d   1      65.595  89.979  93.741  0.00  0.00     0.027 C 
ATOM      4  CG1 ILE d   1      66.283  88.736  93.553  0.00  0.00    -0.130 C 
ATOM      5  CD1 ILE d   1      67.029  87.393  93.351  0.00  0.00     0.081 C 
ATOM      6  CG2 ILE d   1      66.455  91.009  94.453  0.00  0.00     0.040 C 
ENDROOT
BRANCH   1   7
ATOM      7  C   ILE d   1      63.414  91.363  93.400  0.00  0.00     0.225 C 
ATOM      8  O   ILE d   1      63.157  91.700  94.595  0.00  0.00    -0.643 OA
ATOM      9  OXT ILE d   1      63.054  91.955  92.351  0.00  0.00    -0.643 OA
ENDBRANCH   1   7
TORSDOF 1
ENDMDL
MODEL 18
REMARK VINA RESULT:      -3.6     21.716     23.096
REMARK  1 active torsions:
REMARK  status: ('A' for Active; 'I' for Inactive)
REMARK    1  A    between atoms: C_1  and  CA_3 
ROOT
ATOM      1  CA  ILE d   1      62.997  87.715  90.727  0.00  0.00     0.137 C 
ATOM      2  N   ILE d   1      63.331  86.367  91.131  0.00  0.00    -0.094 NA
ATOM      3  CB  ILE d   1      63.856  88.774  91.182  0.00  0.00     0.027 C 
ATOM      4  CG1 ILE d   1      64.985  88.447  92.002  0.00  0.00    -0.130 C 
ATOM      5  CD1 ILE d   1      66.207  88.097  92.888  0.00  0.00     0.081 C 
ATOM      6  CG2 ILE d   1      63.751  90.265  90.917  0.00  0.00     0.040 C 
ENDROOT
BRANCH   1   7
ATOM      7  C   ILE d   1      61.776  87.928  89.859  0.00  0.00     0.225 C 
ATOM      8  O   ILE d   1      61.850  87.409  88.704  0.00  0.00    -0.643 OA
ATOM      9  OXT ILE d   1      60.814  88.582  90.335  0.00  0.00    -0.643 OA
ENDBRANCH   1   7
TORSDOF 1
ENDMDL
MODEL 19
REMARK VINA RESULT:      -3.6     21.625     22.771
REMARK  1 active torsions:
REMARK  status: ('A' for Active; 'I' for Inactive)
REMARK    1  A    between atoms: C_1  and  CA_3 
ROOT
ATOM      1  CA  ILE d   1      63.944  88.911  91.872  0.00  0.00     0.137 C 
ATOM      2  N   ILE d   1      64.512  87.888  92.723  0.00  0.00    -0.094 NA
ATOM      3  CB  ILE d   1      64.289  90.277  92.159  0.00  0.00     0.027 C 
ATOM      4  CG1 ILE d   1      65.166  90.555  93.258  0.00  0.00    -0.130 C 
ATOM      5  CD1 ILE d   1      66.113  90.859  94.446  0.00  0.00     0.081 C 
ATOM      6  CG2 ILE d   1      63.846  91.541  91.444  0.00  0.00     0.040 C 
ENDROOT
BRANCH   1   7
ATOM      7  C   ILE d   1      63.031  88.487  90.743  0.00  0.00     0.225 C 
ATOM      8  O   ILE d   1      61.802  88.738  90.934  0.00  0.00    -0.643 OA
ATOM      9  OXT ILE d   1      63.545  87.937  89.737  0.00  0.00    -0.643 OA
ENDBRANCH   1   7
TORSDOF 1
ENDMDL
MODEL 20
REMARK VINA RESULT:      -3.5     13.971     15.156
REMARK  1 active torsions:
REMARK  status: ('A' for Active; 'I' for Inactive)
REMARK    1  A    between atoms: C_1  and  CA_3 
ROOT
ATOM      1  CA  ILE d   1      76.036  70.846  88.727  0.00  0.00     0.137 C 
ATOM      2  N   ILE d   1      76.477  72.079  88.111  0.00  0.00    -0.094 NA
ATOM      3  CB  ILE d   1      75.226  70.952  89.910  0.00  0.00     0.027 C 
ATOM      4  CG1 ILE d   1      74.899  72.254  90.413  0.00  0.00    -0.130 C 
ATOM      5  CD1 ILE d   1      74.543  73.659  90.960  0.00  0.00     0.081 C 
ATOM      6  CG2 ILE d   1      74.629  69.842  90.757  0.00  0.00     0.040 C 
ENDROOT
BRANCH   1   7
ATOM      7  C   ILE d   1      76.450  69.535  88.098  0.00  0.00     0.225 C 
ATOM      8  O   ILE d   1      75.579  69.014  87.338  0.00  0.00    -0.643 OA
ATOM      9  OXT ILE d   1      77.590  69.078  88.369  0.00  0.00    -0.643 OA
ENDBRANCH   1   7
TORSDOF 1
ENDMDL
