MODEL 1
REMARK VINA RESULT:      -4.4      0.000      0.000
REMARK  3 active torsions:
REMARK  status: ('A' for Active; 'I' for Inactive)
REMARK    1  A    between atoms: CB_1  and  CA_2 
REMARK    2  A    between atoms: CB_1  and  CG_7 
REMARK    3  A    between atoms: CA_2  and  C_3 
ROOT
ATOM      1  CA  ASP d   1      57.590  72.349  82.154  0.00  0.00     0.449 C 
ATOM      2  N   ASP d   1      58.086  72.234  83.498  0.00  0.00     0.642 N 
ENDROOT
BRANCH   1   3
ATOM      3  CB  ASP d   1      56.165  72.374  82.025  0.00  0.00    -0.010 C 
BRANCH   3   4
ATOM      4  CG  ASP d   1      54.666  72.538  81.904  0.00  0.00     0.249 C 
ATOM      5  OD1 ASP d   1      54.002  71.591  81.384  0.00  0.00    -0.638 OA
ATOM      6  OD2 ASP d   1      54.194  73.635  82.343  0.00  0.00    -0.638 OA
ENDBRANCH   3   4
ENDBRANCH   1   3
BRANCH   1   7
ATOM      7  C   ASP d   1      58.569  72.436  80.965  0.00  0.00     0.236 C 
ATOM      8  O   ASP d   1      58.337  71.628  80.006  0.00  0.00    -0.645 OA
ATOM      9  OXT ASP d   1      59.506  73.283  81.027  0.00  0.00    -0.645 OA
ENDBRANCH   1   7
TORSDOF 3
ENDMDL
MODEL 2
REMARK VINA RESULT:      -4.1     10.947     11.380
REMARK  3 active torsions:
REMARK  status: ('A' for Active; 'I' for Inactive)
REMARK    1  A    between atoms: CB_1  and  CA_2 
REMARK    2  A    between atoms: CB_1  and  CG_7 
REMARK    3  A    between atoms: CA_2  and  C_3 
ROOT
ATOM      1  CA  ASP d   1      64.827  74.917  89.746  0.00  0.00     0.449 C 
ATOM      2  N   ASP d   1      65.940  75.358  90.540  0.00  0.00     0.642 N 
ENDROOT
BRANCH   1   3
ATOM      3  CB  ASP d   1      64.075  73.828  90.294  0.00  0.00    -0.010 C 
BRANCH   3   4
ATOM      4  CG  ASP d   1      63.369  72.681  90.981  0.00  0.00     0.249 C 
ATOM      5  OD1 ASP d   1      64.019  71.609  91.171  0.00  0.00    -0.638 OA
ATOM      6  OD2 ASP d   1      62.161  72.897  91.314  0.00  0.00    -0.638 OA
ENDBRANCH   3   4
ENDBRANCH   1   3
BRANCH   1   7
ATOM      7  C   ASP d   1      64.505  75.602  88.402  0.00  0.00     0.236 C 
ATOM      8  O   ASP d   1      65.131  75.142  87.392  0.00  0.00    -0.645 OA
ATOM      9  OXT ASP d   1      63.664  76.547  88.403  0.00  0.00    -0.645 OA
ENDBRANCH   1   7
TORSDOF 3
ENDMDL
MODEL 3
REMARK VINA RESULT:      -4.1     31.322     32.772
REMARK  3 active torsions:
REMARK  status: ('A' for Active; 'I' for Inactive)
REMARK    1  A    between atoms: CB_1  and  CA_2 
REMARK    2  A    between atoms: CB_1  and  CG_7 
REMARK    3  A    between atoms: CA_2  and  C_3 
ROOT
ATOM      1  CA  ASP d   1      84.138  81.091  95.517  0.00  0.00     0.449 C 
ATOM      2  N   ASP d   1      83.874  80.842  94.127  0.00  0.00     0.642 N 
ENDROOT
BRANCH   1   3
ATOM      3  CB  ASP d   1      85.212  80.332  96.084  0.00  0.00    -0.010 C 
BRANCH   3   4
ATOM      4  CG  ASP d   1      86.322  79.435  96.583  0.00  0.00     0.249 C 
ATOM      5  OD1 ASP d   1      86.549  79.405  97.830  0.00  0.00    -0.638 OA
ATOM      6  OD2 ASP d   1      86.943  78.776  95.690  0.00  0.00    -0.638 OA
ENDBRANCH   3   4
ENDBRANCH   1   3
BRANCH   1   7
ATOM      7  C   ASP d   1      83.293  82.115  96.302  0.00  0.00     0.236 C 
ATOM      8  O   ASP d   1      82.272  82.566  95.687  0.00  0.00    -0.645 OA
ATOM      9  OXT ASP d   1      83.667  82.425  97.470  0.00  0.00    -0.645 OA
ENDBRANCH   1   7
TORSDOF 3
ENDMDL
MODEL 4
REMARK VINA RESULT:      -4.0     20.573     21.376
REMARK  3 active torsions:
REMARK  status: ('A' for Active; 'I' for Inactive)
REMARK    1  A    between atoms: CB_1  and  CA_2 
REMARK    2  A    between atoms: CB_1  and  CG_7 
REMARK    3  A    between atoms: CA_2  and  C_3 
ROOT
ATOM      1  CA  ASP d   1      64.323  89.992  92.221  0.00  0.00     0.449 C 
ATOM      2  N   ASP d   1      65.405  89.198  92.734  0.00  0.00     0.642 N 
ENDROOT
BRANCH   1   3
ATOM      3  CB  ASP d   1      63.469  89.332  91.280  0.00  0.00    -0.010 C 
BRANCH   3   4
ATOM      4  CG  ASP d   1      62.647  88.522  90.304  0.00  0.00     0.249 C 
ATOM      5  OD1 ASP d   1      61.385  88.650  90.336  0.00  0.00    -0.638 OA
ATOM      6  OD2 ASP d   1      63.305  87.768  89.519  0.00  0.00    -0.638 OA
ENDBRANCH   3   4
ENDBRANCH   1   3
BRANCH   1   7
ATOM      7  C   ASP d   1      64.137  91.452  92.684  0.00  0.00     0.236 C 
ATOM      8  O   ASP d   1      63.039  91.999  92.337  0.00  0.00    -0.645 OA
ATOM      9  OXT ASP d   1      65.066  91.985  93.357  0.00  0.00    -0.645 OA
ENDBRANCH   1   7
TORSDOF 3
ENDMDL
MODEL 5
REMARK VINA RESULT:      -4.0     29.992     30.971
REMARK  3 active torsions:
REMARK  status: ('A' for Active; 'I' for Inactive)
REMARK    1  A    between atoms: CB_1  and  CA_2 
REMARK    2  A    between atoms: CB_1  and  CG_7 
REMARK    3  A    between atoms: CA_2  and  C_3 
ROOT
ATOM      1  CA  ASP d   1      80.575  82.058  96.828  0.00  0.00     0.449 C 
ATOM      2  N   ASP d   1      79.722  81.415  95.866  0.00  0.00     0.642 N 
ENDROOT
BRANCH   1   3
ATOM      3  CB  ASP d   1      81.979  81.952  96.570  0.00  0.00    -0.010 C 
BRANCH   3   4
ATOM      4  CG  ASP d   1      83.481  81.935  96.398  0.00  0.00     0.249 C 
ATOM      5  OD1 ASP d   1      83.961  81.319  95.399  0.00  0.00    -0.638 OA
ATOM      6  OD2 ASP d   1      84.146  82.552  97.290  0.00  0.00    -0.638 OA
ENDBRANCH   3   4
ENDBRANCH   1   3
BRANCH   1   7
ATOM      7  C   ASP d   1      79.969  82.798  98.038  0.00  0.00     0.236 C 
ATOM      8  O   ASP d   1      79.775  84.047  97.873  0.00  0.00    -0.645 OA
ATOM      9  OXT ASP d   1      79.717  82.127  99.080  0.00  0.00    -0.645 OA
ENDBRANCH   1   7
TORSDOF 3
ENDMDL
MODEL 6
REMARK VINA RESULT:      -4.0     22.705     23.517
REMARK  3 active torsions:
REMARK  status: ('A' for Active; 'I' for Inactive)
REMARK    1  A    between atoms: CB_1  and  CA_2 
REMARK    2  A    between atoms: CB_1  and  CG_7 
REMARK    3  A    between atoms: CA_2  and  C_3 
ROOT
ATOM      1  CA  ASP d   1      65.890  90.287  93.804  0.00  0.00     0.449 C 
ATOM      2  N   ASP d   1      66.275  88.903  93.788  0.00  0.00     0.642 N 
ENDROOT
BRANCH   1   3
ATOM      3  CB  ASP d   1      64.825  90.638  92.914  0.00  0.00    -0.010 C 
BRANCH   3   4
ATOM      4  CG  ASP d   1      63.614  90.995  92.082  0.00  0.00     0.249 C 
ATOM      5  OD1 ASP d   1      63.365  90.290  91.058  0.00  0.00    -0.638 OA
ATOM      6  OD2 ASP d   1      62.938  91.992  92.490  0.00  0.00    -0.638 OA
ENDBRANCH   3   4
ENDBRANCH   1   3
BRANCH   1   7
ATOM      7  C   ASP d   1      66.606  91.287  94.735  0.00  0.00     0.236 C 
ATOM      8  O   ASP d   1      66.543  91.015  95.979  0.00  0.00    -0.645 OA
ATOM      9  OXT ASP d   1      67.188  92.278  94.208  0.00  0.00    -0.645 OA
ENDBRANCH   1   7
TORSDOF 3
ENDMDL
MODEL 7
REMARK VINA RESULT:      -4.0     22.609     23.622
REMARK  3 active torsions:
REMARK  status: ('A' for Active; 'I' for Inactive)
REMARK    1  A    between atoms: CB_1  and  CA_2 
REMARK    2  A    between atoms: CB_1  and  CG_7 
REMARK    3  A    between atoms: CA_2  and  C_3 
ROOT
ATOM      1  CA  ASP d   1      64.783  90.241  92.681  0.00  0.00     0.449 C 
ATOM      2  N   ASP d   1      64.983  88.864  92.324  0.00  0.00     0.642 N 
ENDROOT
BRANCH   1   3
ATOM      3  CB  ASP d   1      65.634  90.735  93.721  0.00  0.00    -0.010 C 
BRANCH   3   4
ATOM      4  CG  ASP d   1      66.601  91.329  94.721  0.00  0.00     0.249 C 
ATOM      5  OD1 ASP d   1      66.636  90.829  95.886  0.00  0.00    -0.638 OA
ATOM      6  OD2 ASP d   1      67.309  92.296  94.297  0.00  0.00    -0.638 OA
ENDBRANCH   3   4
ENDBRANCH   1   3
BRANCH   1   7
ATOM      7  C   ASP d   1      63.711  91.087  91.964  0.00  0.00     0.236 C 
ATOM      8  O   ASP d   1      63.004  91.829  92.722  0.00  0.00    -0.645 OA
ATOM      9  OXT ASP d   1      63.616  90.985  90.707  0.00  0.00    -0.645 OA
ENDBRANCH   1   7
TORSDOF 3
ENDMDL
MODEL 8
REMARK VINA RESULT:      -3.9     19.345     20.376
REMARK  3 active torsions:
REMARK  status: ('A' for Active; 'I' for Inactive)
REMARK    1  A    between atoms: CB_1  and  CA_2 
REMARK    2  A    between atoms: CB_1  and  CG_7 
REMARK    3  A    between atoms: CA_2  and  C_3 
ROOT
ATOM      1  CA  ASP d   1      75.474  70.440  89.579  0.00  0.00     0.449 C 
ATOM      2  N   ASP d   1      76.625  71.008  90.225  0.00  0.00     0.642 N 
ENDROOT
BRANCH   1   3
ATOM      3  CB  ASP d   1      75.737  69.751  88.352  0.00  0.00    -0.010 C 
BRANCH   3   4
ATOM      4  CG  ASP d   1      76.141  69.081  87.058  0.00  0.00     0.249 C 
ATOM      5  OD1 ASP d   1      75.736  69.590  85.970  0.00  0.00    -0.638 OA
ATOM      6  OD2 ASP d   1      76.868  68.044  87.178  0.00  0.00    -0.638 OA
ENDBRANCH   3   4
ENDBRANCH   1   3
BRANCH   1   7
ATOM      7  C   ASP d   1      74.072  70.588  90.206  0.00  0.00     0.236 C 
ATOM      8  O   ASP d   1      73.955  71.523  91.065  0.00  0.00    -0.645 OA
ATOM      9  OXT ASP d   1      73.165  69.790  89.831  0.00  0.00    -0.645 OA
ENDBRANCH   1   7
TORSDOF 3
ENDMDL
MODEL 9
REMARK VINA RESULT:      -3.9     10.988     11.740
REMARK  3 active torsions:
REMARK  status: ('A' for Active; 'I' for Inactive)
REMARK    1  A    between atoms: CB_1  and  CA_2 
REMARK    2  A    between atoms: CB_1  and  CG_7 
REMARK    3  A    between atoms: CA_2  and  C_3 
ROOT
ATOM      1  CA  ASP d   1      64.494  73.753  90.831  0.00  0.00     0.449 C 
ATOM      2  N   ASP d   1      65.607  74.018  91.701  0.00  0.00     0.642 N 
ENDROOT
BRANCH   1   3
ATOM      3  CB  ASP d   1      64.355  74.647  89.722  0.00  0.00    -0.010 C 
BRANCH   3   4
ATOM      4  CG  ASP d   1      64.347  75.588  88.538  0.00  0.00     0.249 C 
ATOM      5  OD1 ASP d   1      65.056  75.286  87.531  0.00  0.00    -0.638 OA
ATOM      6  OD2 ASP d   1      63.614  76.621  88.659  0.00  0.00    -0.638 OA
ENDBRANCH   3   4
ENDBRANCH   1   3
BRANCH   1   7
ATOM      7  C   ASP d   1      63.542  72.573  91.117  0.00  0.00     0.236 C 
ATOM      8  O   ASP d   1      62.301  72.863  91.128  0.00  0.00    -0.645 OA
ATOM      9  OXT ASP d   1      64.052  71.433  91.315  0.00  0.00    -0.645 OA
ENDBRANCH   1   7
TORSDOF 3
ENDMDL
MODEL 10
REMARK VINA RESULT:      -3.9     28.973     29.855
REMARK  3 active torsions:
REMARK  status: ('A' for Active; 'I' for Inactive)
REMARK    1  A    between atoms: CB_1  and  CA_2 
REMARK    2  A    between atoms: CB_1  and  CG_7 
REMARK    3  A    between atoms: CA_2  and  C_3 
ROOT
ATOM      1  CA  ASP d   1      80.299  81.124  96.936  0.00  0.00     0.449 C 
ATOM      2  N   ASP d   1      79.396  81.123  95.818  0.00  0.00     0.642 N 
ENDROOT
BRANCH   1   3
ATOM      3  CB  ASP d   1      80.136  80.040  97.857  0.00  0.00    -0.010 C 
BRANCH   3   4
ATOM      4  CG  ASP d   1      79.859  78.968  98.886  0.00  0.00     0.249 C 
ATOM      5  OD1 ASP d   1      80.848  78.441  99.481  0.00  0.00    -0.638 OA
ATOM      6  OD2 ASP d   1      78.633  78.681  99.069  0.00  0.00    -0.638 OA
ENDBRANCH   3   4
ENDBRANCH   1   3
BRANCH   1   7
ATOM      7  C   ASP d   1      81.353  82.239  97.088  0.00  0.00     0.236 C 
ATOM      8  O   ASP d   1      81.904  82.621  96.003  0.00  0.00    -0.645 OA
ATOM      9  OXT ASP d   1      81.589  82.681  98.249  0.00  0.00    -0.645 OA
ENDBRANCH   1   7
TORSDOF 3
ENDMDL
MODEL 11
REMARK VINA RESULT:      -3.9      3.927      5.999
REMARK  3 active torsions:
REMARK  status: ('A' for Active; 'I' for Inactive)
REMARK    1  A    between atoms: CB_1  and  CA_2 
REMARK    2  A    between atoms: CB_1  and  CG_7 
REMARK    3  A    between atoms: CA_2  and  C_3 
ROOT
ATOM      1  CA  ASP d   1      61.201  73.960  81.001  0.00  0.00     0.449 C 
ATOM      2  N   ASP d   1      62.333  73.150  80.647  0.00  0.00     0.642 N 
ENDROOT
BRANCH   1   3
ATOM      3  CB  ASP d   1      61.440  75.372  81.022  0.00  0.00    -0.010 C 
BRANCH   3   4
ATOM      4  CG  ASP d   1      61.557  76.879  81.011  0.00  0.00     0.249 C 
ATOM      5  OD1 ASP d   1      61.916  77.458  82.081  0.00  0.00    -0.638 OA
ATOM      6  OD2 ASP d   1      61.281  77.446  79.906  0.00  0.00    -0.638 OA
ENDBRANCH   3   4
ENDBRANCH   1   3
BRANCH   1   7
ATOM      7  C   ASP d   1      59.843  73.307  81.328  0.00  0.00     0.236 C 
ATOM      8  O   ASP d   1      59.341  72.596  80.396  0.00  0.00    -0.645 OA
ATOM      9  OXT ASP d   1      59.340  73.518  82.470  0.00  0.00    -0.645 OA
ENDBRANCH   1   7
TORSDOF 3
ENDMDL
MODEL 12
REMARK VINA RESULT:      -3.9     19.504     20.407
REMARK  3 active torsions:
REMARK  status: ('A' for Active; 'I' for Inactive)
REMARK    1  A    between atoms: CB_1  and  CA_2 
REMARK    2  A    between atoms: CB_1  and  CG_7 
REMARK    3  A    between atoms: CA_2  and  C_3 
ROOT
ATOM      1  CA  ASP d   1      76.567  69.559  88.555  0.00  0.00     0.449 C 
ATOM      2  N   ASP d   1      77.869  69.673  89.153  0.00  0.00     0.642 N 
ENDROOT
BRANCH   1   3
ATOM      3  CB  ASP d   1      75.471  69.937  89.395  0.00  0.00    -0.010 C 
BRANCH   3   4
ATOM      4  CG  ASP d   1      74.239  70.239  90.218  0.00  0.00     0.249 C 
ATOM      5  OD1 ASP d   1      73.113  69.877  89.761  0.00  0.00    -0.638 OA
ATOM      6  OD2 ASP d   1      74.445  70.841  91.319  0.00  0.00    -0.638 OA
ENDBRANCH   3   4
ENDBRANCH   1   3
BRANCH   1   7
ATOM      7  C   ASP d   1      76.414  69.059  87.104  0.00  0.00     0.236 C 
ATOM      8  O   ASP d   1      77.391  68.371  86.658  0.00  0.00    -0.645 OA
ATOM      9  OXT ASP d   1      75.357  69.361  86.479  0.00  0.00    -0.645 OA
ENDBRANCH   1   7
TORSDOF 3
ENDMDL
MODEL 13
REMARK VINA RESULT:      -3.9     30.068     31.662
REMARK  3 active torsions:
REMARK  status: ('A' for Active; 'I' for Inactive)
REMARK    1  A    between atoms: CB_1  and  CA_2 
REMARK    2  A    between atoms: CB_1  and  CG_7 
REMARK    3  A    between atoms: CA_2  and  C_3 
ROOT
ATOM      1  CA  ASP d   1      83.626  81.479  95.710  0.00  0.00     0.449 C 
ATOM      2  N   ASP d   1      83.491  81.094  94.332  0.00  0.00     0.642 N 
ENDROOT
BRANCH   1   3
ATOM      3  CB  ASP d   1      82.408  81.849  96.366  0.00  0.00    -0.010 C 
BRANCH   3   4
ATOM      4  CG  ASP d   1      81.186  82.214  97.178  0.00  0.00     0.249 C 
ATOM      5  OD1 ASP d   1      81.363  82.737  98.320  0.00  0.00    -0.638 OA
ATOM      6  OD2 ASP d   1      80.065  81.959  96.634  0.00  0.00    -0.638 OA
ENDBRANCH   3   4
ENDBRANCH   1   3
BRANCH   1   7
ATOM      7  C   ASP d   1      85.010  81.476  96.391  0.00  0.00     0.236 C 
ATOM      8  O   ASP d   1      85.958  80.978  95.699  0.00  0.00    -0.645 OA
ATOM      9  OXT ASP d   1      85.100  81.956  97.558  0.00  0.00    -0.645 OA
ENDBRANCH   1   7
TORSDOF 3
ENDMDL
MODEL 14
REMARK VINA RESULT:      -3.7     19.380     20.677
REMARK  3 active torsions:
REMARK  status: ('A' for Active; 'I' for Inactive)
REMARK    1  A    between atoms: CB_1  and  CA_2 
REMARK    2  A    between atoms: CB_1  and  CG_7 
REMARK    3  A    between atoms: CA_2  and  C_3 
ROOT
ATOM      1  CA  ASP d   1      76.152  69.254  87.424  0.00  0.00     0.449 C 
ATOM      2  N   ASP d   1      75.561  69.594  86.159  0.00  0.00     0.642 N 
ENDROOT
BRANCH   1   3
ATOM      3  CB  ASP d   1      75.452  69.734  88.577  0.00  0.00    -0.010 C 
BRANCH   3   4
ATOM      4  CG  ASP d   1      74.632  70.128  89.785  0.00  0.00     0.249 C 
ATOM      5  OD1 ASP d   1      75.218  70.731  90.734  0.00  0.00    -0.638 OA
ATOM      6  OD2 ASP d   1      73.400  69.815  89.741  0.00  0.00    -0.638 OA
ENDBRANCH   3   4
ENDBRANCH   1   3
BRANCH   1   7
ATOM      7  C   ASP d   1      77.452  68.426  87.482  0.00  0.00     0.236 C 
ATOM      8  O   ASP d   1      77.936  68.250  88.649  0.00  0.00    -0.645 OA
ATOM      9  OXT ASP d   1      77.930  67.993  86.395  0.00  0.00    -0.645 OA
ENDBRANCH   1   7
TORSDOF 3
ENDMDL
MODEL 15
REMARK VINA RESULT:      -3.6     20.365     22.078
REMARK  3 active torsions:
REMARK  status: ('A' for Active; 'I' for Inactive)
REMARK    1  A    between atoms: CB_1  and  CA_2 
REMARK    2  A    between atoms: CB_1  and  CG_7 
REMARK    3  A    between atoms: CA_2  and  C_3 
ROOT
ATOM      1  CA  ASP d   1      77.321  68.294  87.280  0.00  0.00     0.449 C 
ATOM      2  N   ASP d   1      78.238  67.809  86.286  0.00  0.00     0.642 N 
ENDROOT
BRANCH   1   3
ATOM      3  CB  ASP d   1      77.642  67.950  88.632  0.00  0.00    -0.010 C 
BRANCH   3   4
ATOM      4  CG  ASP d   1      77.858  67.524  90.066  0.00  0.00     0.249 C 
ATOM      5  OD1 ASP d   1      77.229  68.146  90.975  0.00  0.00    -0.638 OA
ATOM      6  OD2 ASP d   1      78.668  66.559  90.240  0.00  0.00    -0.638 OA
ENDBRANCH   3   4
ENDBRANCH   1   3
BRANCH   1   7
ATOM      7  C   ASP d   1      76.089  69.126  86.867  0.00  0.00     0.236 C 
ATOM      8  O   ASP d   1      75.238  69.336  87.793  0.00  0.00    -0.645 OA
ATOM      9  OXT ASP d   1      76.016  69.527  85.670  0.00  0.00    -0.645 OA
ENDBRANCH   1   7
TORSDOF 3
ENDMDL
MODEL 16
REMARK VINA RESULT:      -3.6     28.439     29.127
REMARK  3 active torsions:
REMARK  status: ('A' for Active; 'I' for Inactive)
REMARK    1  A    between atoms: CB_1  and  CA_2 
REMARK    2  A    between atoms: CB_1  and  CG_7 
REMARK    3  A    between atoms: CA_2  and  C_3 
ROOT
ATOM      1  CA  ASP d   1      78.495  82.407  97.651  0.00  0.00     0.449 C 
ATOM      2  N   ASP d   1      77.526  82.706  96.633  0.00  0.00     0.642 N 
ENDROOT
BRANCH   1   3
ATOM      3  CB  ASP d   1      78.242  81.220  98.410  0.00  0.00    -0.010 C 
BRANCH   3   4
ATOM      4  CG  ASP d   1      77.863  80.030  99.263  0.00  0.00     0.249 C 
ATOM      5  OD1 ASP d   1      76.980  80.195 100.158  0.00  0.00    -0.638 OA
ATOM      6  OD2 ASP d   1      78.475  78.946  99.002  0.00  0.00    -0.638 OA
ENDBRANCH   3   4
ENDBRANCH   1   3
BRANCH   1   7
ATOM      7  C   ASP d   1      79.708  83.334  97.871  0.00  0.00     0.236 C 
ATOM      8  O   ASP d   1      80.833  82.744  97.983  0.00  0.00    -0.645 OA
ATOM      9  OXT ASP d   1      79.503  84.581  97.923  0.00  0.00    -0.645 OA
ENDBRANCH   1   7
TORSDOF 3
ENDMDL
MODEL 17
REMARK VINA RESULT:      -3.5     20.261     22.006
REMARK  3 active torsions:
REMARK  status: ('A' for Active; 'I' for Inactive)
REMARK    1  A    between atoms: CB_1  and  CA_2 
REMARK    2  A    between atoms: CB_1  and  CG_7 
REMARK    3  A    between atoms: CA_2  and  C_3 
ROOT
ATOM      1  CA  ASP d   1      77.256  68.811  87.909  0.00  0.00     0.449 C 
ATOM      2  N   ASP d   1      78.147  69.757  88.523  0.00  0.00     0.642 N 
ENDROOT
BRANCH   1   3
ATOM      3  CB  ASP d   1      77.666  67.441  87.989  0.00  0.00    -0.010 C 
BRANCH   3   4
ATOM      4  CG  ASP d   1      77.967  65.965  88.110  0.00  0.00     0.249 C 
ATOM      5  OD1 ASP d   1      76.998  65.150  88.040  0.00  0.00    -0.638 OA
ATOM      6  OD2 ASP d   1      79.192  65.663  88.273  0.00  0.00    -0.638 OA
ENDBRANCH   3   4
ENDBRANCH   1   3
BRANCH   1   7
ATOM      7  C   ASP d   1      75.960  69.289  87.223  0.00  0.00     0.236 C 
ATOM      8  O   ASP d   1      74.969  69.478  88.001  0.00  0.00    -0.645 OA
ATOM      9  OXT ASP d   1      75.977  69.453  85.969  0.00  0.00    -0.645 OA
ENDBRANCH   1   7
TORSDOF 3
ENDMDL
MODEL 18
REMARK VINA RESULT:      -3.5     11.142     12.127
REMARK  3 active torsions:
REMARK  status: ('A' for Active; 'I' for Inactive)
REMARK    1  A    between atoms: CB_1  and  CA_2 
REMARK    2  A    between atoms: CB_1  and  CG_7 
REMARK    3  A    between atoms: CA_2  and  C_3 
ROOT
ATOM      1  CA  ASP d   1      63.714  75.143  90.571  0.00  0.00     0.449 C 
ATOM      2  N   ASP d   1      62.635  75.740  91.309  0.00  0.00     0.642 N 
ENDROOT
BRANCH   1   3
ATOM      3  CB  ASP d   1      64.158  73.870  91.054  0.00  0.00    -0.010 C 
BRANCH   3   4
ATOM      4  CG  ASP d   1      64.494  72.499  91.596  0.00  0.00     0.249 C 
ATOM      5  OD1 ASP d   1      63.988  71.489  91.020  0.00  0.00    -0.638 OA
ATOM      6  OD2 ASP d   1      65.270  72.479  92.604  0.00  0.00    -0.638 OA
ENDBRANCH   3   4
ENDBRANCH   1   3
BRANCH   1   7
ATOM      7  C   ASP d   1      64.319  75.864  89.349  0.00  0.00     0.236 C 
ATOM      8  O   ASP d   1      65.587  75.785  89.242  0.00  0.00    -0.645 OA
ATOM      9  OXT ASP d   1      63.531  76.467  88.564  0.00  0.00    -0.645 OA
ENDBRANCH   1   7
TORSDOF 3
ENDMDL
MODEL 19
REMARK VINA RESULT:      -3.5     20.480     21.943
REMARK  3 active torsions:
REMARK  status: ('A' for Active; 'I' for Inactive)
REMARK    1  A    between atoms: CB_1  and  CA_2 
REMARK    2  A    between atoms: CB_1  and  CG_7 
REMARK    3  A    between atoms: CA_2  and  C_3 
ROOT
ATOM      1  CA  ASP d   1      77.639  67.700  88.460  0.00  0.00     0.449 C 
ATOM      2  N   ASP d   1      77.706  67.479  89.879  0.00  0.00     0.642 N 
ENDROOT
BRANCH   1   3
ATOM      3  CB  ASP d   1      76.876  68.841  88.053  0.00  0.00    -0.010 C 
BRANCH   3   4
ATOM      4  CG  ASP d   1      76.189  70.118  87.623  0.00  0.00     0.249 C 
ATOM      5  OD1 ASP d   1      76.082  71.053  88.473  0.00  0.00    -0.638 OA
ATOM      6  OD2 ASP d   1      75.770  70.142  86.423  0.00  0.00    -0.638 OA
ENDBRANCH   3   4
ENDBRANCH   1   3
BRANCH   1   7
ATOM      7  C   ASP d   1      78.357  66.745  87.486  0.00  0.00     0.236 C 
ATOM      8  O   ASP d   1      78.847  65.693  88.014  0.00  0.00    -0.645 OA
ATOM      9  OXT ASP d   1      78.407  67.069  86.264  0.00  0.00    -0.645 OA
ENDBRANCH   1   7
TORSDOF 3
ENDMDL
MODEL 20
REMARK VINA RESULT:      -3.4     28.036     29.183
REMARK  3 active torsions:
REMARK  status: ('A' for Active; 'I' for Inactive)
REMARK    1  A    between atoms: CB_1  and  CA_2 
REMARK    2  A    between atoms: CB_1  and  CG_7 
REMARK    3  A    between atoms: CA_2  and  C_3 
ROOT
ATOM      1  CA  ASP d   1      78.388  80.547  97.628  0.00  0.00     0.449 C 
ATOM      2  N   ASP d   1      77.580  80.569  96.440  0.00  0.00     0.642 N 
ENDROOT
BRANCH   1   3
ATOM      3  CB  ASP d   1      79.451  81.505  97.666  0.00  0.00    -0.010 C 
BRANCH   3   4
ATOM      4  CG  ASP d   1      80.478  82.613  97.734  0.00  0.00     0.249 C 
ATOM      5  OD1 ASP d   1      81.704  82.293  97.706  0.00  0.00    -0.638 OA
ATOM      6  OD2 ASP d   1      80.011  83.794  97.814  0.00  0.00    -0.638 OA
ENDBRANCH   3   4
ENDBRANCH   1   3
BRANCH   1   7
ATOM      7  C   ASP d   1      78.089  79.540  98.758  0.00  0.00     0.236 C 
ATOM      8  O   ASP d   1      78.492  78.349  98.547  0.00  0.00    -0.645 OA
ATOM      9  OXT ASP d   1      77.481  79.960  99.784  0.00  0.00    -0.645 OA
ENDBRANCH   1   7
TORSDOF 3
ENDMDL
