MODEL 1
REMARK VINA RESULT:      -4.0      0.000      0.000
REMARK  3 active torsions:
REMARK  status: ('A' for Active; 'I' for Inactive)
REMARK    1  A    between atoms: C_1  and  CA_3 
REMARK    2  A    between atoms: CA_3  and  C_5 
REMARK    3  A    between atoms: C_5  and  C_6 
ROOT
ATOM      1  C   UNL d   1      54.741  72.653  81.607  0.00  0.00     0.002 C 
ATOM      2  C   UNL d   1      53.246  72.812  81.314  0.00  0.00     0.072 C 
ATOM      3  N   UNL d   1      51.827  72.961  81.038  0.00  0.00    -0.086 N 
ENDROOT
BRANCH   1   4
ATOM      4  C   UNL d   1      56.236  72.495  81.900  0.00  0.00    -0.028 C 
BRANCH   4   5
ATOM      5  CA  UNL d   1      57.623  72.352  82.172  0.00  0.00     0.451 C 
ATOM      6  N   UNL d   1      57.989  72.091  83.532  0.00  0.00     0.642 N 
BRANCH   5   7
ATOM      7  C   UNL d   1      58.666  72.474  81.053  0.00  0.00     0.237 C 
ATOM      8  O   UNL d   1      58.522  71.682  80.074  0.00  0.00    -0.645 OA
ATOM      9  OXT UNL d   1      59.562  73.353  81.225  0.00  0.00    -0.645 OA
ENDBRANCH   5   7
ENDBRANCH   4   5
ENDBRANCH   1   4
TORSDOF 3
ENDMDL
MODEL 2
REMARK VINA RESULT:      -3.8     20.150     21.294
REMARK  3 active torsions:
REMARK  status: ('A' for Active; 'I' for Inactive)
REMARK    1  A    between atoms: C_1  and  CA_3 
REMARK    2  A    between atoms: CA_3  and  C_5 
REMARK    3  A    between atoms: C_5  and  C_6 
ROOT
ATOM      1  C   UNL d   1      76.807  69.446  88.053  0.00  0.00     0.002 C 
ATOM      2  C   UNL d   1      77.562  68.427  87.194  0.00  0.00     0.072 C 
ATOM      3  N   UNL d   1      78.280  67.462  86.378  0.00  0.00    -0.086 N 
ENDROOT
BRANCH   1   4
ATOM      4  C   UNL d   1      76.051  70.465  88.912  0.00  0.00    -0.028 C 
BRANCH   4   5
ATOM      5  CA  UNL d   1      75.349  71.412  89.704  0.00  0.00     0.451 C 
ATOM      6  N   UNL d   1      75.948  72.706  89.843  0.00  0.00     0.642 N 
BRANCH   5   7
ATOM      7  C   UNL d   1      74.016  71.051  90.372  0.00  0.00     0.237 C 
ATOM      8  O   UNL d   1      73.547  71.914  91.173  0.00  0.00    -0.645 OA
ATOM      9  OXT UNL d   1      73.523  69.928  90.054  0.00  0.00    -0.645 OA
ENDBRANCH   5   7
ENDBRANCH   4   5
ENDBRANCH   1   4
TORSDOF 3
ENDMDL
MODEL 3
REMARK VINA RESULT:      -3.7     20.377     21.169
REMARK  3 active torsions:
REMARK  status: ('A' for Active; 'I' for Inactive)
REMARK    1  A    between atoms: C_1  and  CA_3 
REMARK    2  A    between atoms: CA_3  and  C_5 
REMARK    3  A    between atoms: C_5  and  C_6 
ROOT
ATOM      1  C   UNL d   1      62.602  88.474  90.493  0.00  0.00     0.002 C 
ATOM      2  C   UNL d   1      61.660  87.684  89.578  0.00  0.00     0.072 C 
ATOM      3  N   UNL d   1      60.766  86.937  88.709  0.00  0.00    -0.086 N 
ENDROOT
BRANCH   1   4
ATOM      4  C   UNL d   1      63.543  89.263  91.408  0.00  0.00    -0.028 C 
BRANCH   4   5
ATOM      5  CA  UNL d   1      64.418  89.991  92.258  0.00  0.00     0.451 C 
ATOM      6  N   UNL d   1      65.540  89.277  92.790  0.00  0.00     0.642 N 
BRANCH   5   7
ATOM      7  C   UNL d   1      64.159  91.468  92.581  0.00  0.00     0.237 C 
ATOM      8  O   UNL d   1      63.102  91.965  92.090  0.00  0.00    -0.645 OA
ATOM      9  OXT UNL d   1      65.029  92.037  93.306  0.00  0.00    -0.645 OA
ENDBRANCH   5   7
ENDBRANCH   4   5
ENDBRANCH   1   4
TORSDOF 3
ENDMDL
MODEL 4
REMARK VINA RESULT:      -3.7      2.840      5.238
REMARK  3 active torsions:
REMARK  status: ('A' for Active; 'I' for Inactive)
REMARK    1  A    between atoms: C_1  and  CA_3 
REMARK    2  A    between atoms: CA_3  and  C_5 
REMARK    3  A    between atoms: C_5  and  C_6 
ROOT
ATOM      1  C   UNL d   1      59.568  72.813  81.356  0.00  0.00     0.002 C 
ATOM      2  C   UNL d   1      60.932  73.058  80.703  0.00  0.00     0.072 C 
ATOM      3  N   UNL d   1      62.225  73.290  80.082  0.00  0.00    -0.086 N 
ENDROOT
BRANCH   1   4
ATOM      4  C   UNL d   1      58.204  72.568  82.009  0.00  0.00    -0.028 C 
BRANCH   4   5
ATOM      5  CA  UNL d   1      56.938  72.345  82.614  0.00  0.00     0.451 C 
ATOM      6  N   UNL d   1      56.931  72.126  84.030  0.00  0.00     0.642 N 
BRANCH   5   7
ATOM      7  C   UNL d   1      55.652  72.342  81.779  0.00  0.00     0.237 C 
ATOM      8  O   UNL d   1      54.686  73.015  82.248  0.00  0.00    -0.645 OA
ATOM      9  OXT UNL d   1      55.688  71.667  80.707  0.00  0.00    -0.645 OA
ENDBRANCH   5   7
ENDBRANCH   4   5
ENDBRANCH   1   4
TORSDOF 3
ENDMDL
MODEL 5
REMARK VINA RESULT:      -3.7     20.098     21.600
REMARK  3 active torsions:
REMARK  status: ('A' for Active; 'I' for Inactive)
REMARK    1  A    between atoms: C_1  and  CA_3 
REMARK    2  A    between atoms: CA_3  and  C_5 
REMARK    3  A    between atoms: C_5  and  C_6 
ROOT
ATOM      1  C   UNL d   1      77.028  68.529  88.724  0.00  0.00     0.002 C 
ATOM      2  C   UNL d   1      77.857  67.311  88.302  0.00  0.00     0.072 C 
ATOM      3  N   UNL d   1      78.644  66.157  87.900  0.00  0.00    -0.086 N 
ENDROOT
BRANCH   1   4
ATOM      4  C   UNL d   1      76.200  69.746  89.147  0.00  0.00    -0.028 C 
BRANCH   4   5
ATOM      5  CA  UNL d   1      75.436  70.876  89.541  0.00  0.00     0.451 C 
ATOM      6  N   UNL d   1      76.003  72.163  89.269  0.00  0.00     0.642 N 
BRANCH   5   7
ATOM      7  C   UNL d   1      74.072  70.710  90.223  0.00  0.00     0.237 C 
ATOM      8  O   UNL d   1      73.413  69.678  89.898  0.00  0.00    -0.645 OA
ATOM      9  OXT UNL d   1      73.746  71.622  91.040  0.00  0.00    -0.645 OA
ENDBRANCH   5   7
ENDBRANCH   4   5
ENDBRANCH   1   4
TORSDOF 3
ENDMDL
MODEL 6
REMARK VINA RESULT:      -3.7     31.526     32.828
REMARK  3 active torsions:
REMARK  status: ('A' for Active; 'I' for Inactive)
REMARK    1  A    between atoms: C_1  and  CA_3 
REMARK    2  A    between atoms: CA_3  and  C_5 
REMARK    3  A    between atoms: C_5  and  C_6 
ROOT
ATOM      1  C   UNL d   1      72.776  89.306 101.840  0.00  0.00     0.002 C 
ATOM      2  C   UNL d   1      72.345  88.588 100.557  0.00  0.00     0.072 C 
ATOM      3  N   UNL d   1      71.935  87.909  99.340  0.00  0.00    -0.086 N 
ENDROOT
BRANCH   1   4
ATOM      4  C   UNL d   1      73.208  90.024 103.123  0.00  0.00    -0.028 C 
BRANCH   4   5
ATOM      5  CA  UNL d   1      73.611  90.687 104.313  0.00  0.00     0.451 C 
ATOM      6  N   UNL d   1      72.657  90.730 105.380  0.00  0.00     0.642 N 
BRANCH   5   7
ATOM      7  C   UNL d   1      75.002  91.321 104.432  0.00  0.00     0.237 C 
ATOM      8  O   UNL d   1      75.814  91.054 103.497  0.00  0.00    -0.645 OA
ATOM      9  OXT UNL d   1      75.195  92.046 105.454  0.00  0.00    -0.645 OA
ENDBRANCH   5   7
ENDBRANCH   4   5
ENDBRANCH   1   4
TORSDOF 3
ENDMDL
MODEL 7
REMARK VINA RESULT:      -3.7     30.041     31.516
REMARK  3 active torsions:
REMARK  status: ('A' for Active; 'I' for Inactive)
REMARK    1  A    between atoms: C_1  and  CA_3 
REMARK    2  A    between atoms: CA_3  and  C_5 
REMARK    3  A    between atoms: C_5  and  C_6 
ROOT
ATOM      1  C   UNL d   1      83.472  81.320  95.897  0.00  0.00     0.002 C 
ATOM      2  C   UNL d   1      84.915  81.042  95.465  0.00  0.00     0.072 C 
ATOM      3  N   UNL d   1      86.283  80.778  95.053  0.00  0.00    -0.086 N 
ENDROOT
BRANCH   1   4
ATOM      4  C   UNL d   1      82.029  81.598  96.329  0.00  0.00    -0.028 C 
BRANCH   4   5
ATOM      5  CA  UNL d   1      80.690  81.852  96.732  0.00  0.00     0.451 C 
ATOM      6  N   UNL d   1      79.655  81.355  95.876  0.00  0.00     0.642 N 
BRANCH   5   7
ATOM      7  C   UNL d   1      80.385  82.623  98.023  0.00  0.00     0.237 C 
ATOM      8  O   UNL d   1      80.538  81.977  99.102  0.00  0.00    -0.645 OA
ATOM      9  OXT UNL d   1      80.011  83.825  97.875  0.00  0.00    -0.645 OA
ENDBRANCH   5   7
ENDBRANCH   4   5
ENDBRANCH   1   4
TORSDOF 3
ENDMDL
MODEL 8
REMARK VINA RESULT:      -3.5     20.791     22.320
REMARK  3 active torsions:
REMARK  status: ('A' for Active; 'I' for Inactive)
REMARK    1  A    between atoms: C_1  and  CA_3 
REMARK    2  A    between atoms: CA_3  and  C_5 
REMARK    3  A    between atoms: C_5  and  C_6 
ROOT
ATOM      1  C   UNL d   1      77.707  66.836  87.955  0.00  0.00     0.002 C 
ATOM      2  C   UNL d   1      78.443  65.539  88.304  0.00  0.00     0.072 C 
ATOM      3  N   UNL d   1      79.143  64.308  88.635  0.00  0.00    -0.086 N 
ENDROOT
BRANCH   1   4
ATOM      4  C   UNL d   1      76.971  68.133  87.605  0.00  0.00    -0.028 C 
BRANCH   4   5
ATOM      5  CA  UNL d   1      76.285  69.334  87.280  0.00  0.00     0.451 C 
ATOM      6  N   UNL d   1      75.899  69.504  85.911  0.00  0.00     0.642 N 
BRANCH   5   7
ATOM      7  C   UNL d   1      75.980  70.386  88.353  0.00  0.00     0.237 C 
ATOM      8  O   UNL d   1      76.434  71.548  88.133  0.00  0.00    -0.645 OA
ATOM      9  OXT UNL d   1      75.305  69.983  89.347  0.00  0.00    -0.645 OA
ENDBRANCH   5   7
ENDBRANCH   4   5
ENDBRANCH   1   4
TORSDOF 3
ENDMDL
MODEL 9
REMARK VINA RESULT:      -3.5     22.026     22.652
REMARK  3 active torsions:
REMARK  status: ('A' for Active; 'I' for Inactive)
REMARK    1  A    between atoms: C_1  and  CA_3 
REMARK    2  A    between atoms: CA_3  and  C_5 
REMARK    3  A    between atoms: C_5  and  C_6 
ROOT
ATOM      1  C   UNL d   1      66.213  88.213  92.994  0.00  0.00     0.002 C 
ATOM      2  C   UNL d   1      67.242  87.221  93.544  0.00  0.00     0.072 C 
ATOM      3  N   UNL d   1      68.221  86.281  94.065  0.00  0.00    -0.086 N 
ENDROOT
BRANCH   1   4
ATOM      4  C   UNL d   1      65.183  89.206  92.444  0.00  0.00    -0.028 C 
BRANCH   4   5
ATOM      5  CA  UNL d   1      64.232  90.127  91.931  0.00  0.00     0.451 C 
ATOM      6  N   UNL d   1      63.541  89.741  90.737  0.00  0.00     0.642 N 
BRANCH   5   7
ATOM      7  C   UNL d   1      63.968  91.465  92.633  0.00  0.00     0.237 C 
ATOM      8  O   UNL d   1      62.797  91.934  92.508  0.00  0.00    -0.645 OA
ATOM      9  OXT UNL d   1      64.948  91.963  93.263  0.00  0.00    -0.645 OA
ENDBRANCH   5   7
ENDBRANCH   4   5
ENDBRANCH   1   4
TORSDOF 3
ENDMDL
MODEL 10
REMARK VINA RESULT:      -3.5     30.331     31.598
REMARK  3 active torsions:
REMARK  status: ('A' for Active; 'I' for Inactive)
REMARK    1  A    between atoms: C_1  and  CA_3 
REMARK    2  A    between atoms: CA_3  and  C_5 
REMARK    3  A    between atoms: C_5  and  C_6 
ROOT
ATOM      1  C   UNL d   1      80.859  82.004  96.737  0.00  0.00     0.002 C 
ATOM      2  C   UNL d   1      79.418  82.258  97.191  0.00  0.00     0.072 C 
ATOM      3  N   UNL d   1      78.052  82.498  97.624  0.00  0.00    -0.086 N 
ENDROOT
BRANCH   1   4
ATOM      4  C   UNL d   1      82.300  81.750  96.283  0.00  0.00    -0.028 C 
BRANCH   4   5
ATOM      5  CA  UNL d   1      83.635  81.516  95.858  0.00  0.00     0.451 C 
ATOM      6  N   UNL d   1      83.805  80.949  94.554  0.00  0.00     0.642 N 
BRANCH   5   7
ATOM      7  C   UNL d   1      84.825  81.859  96.762  0.00  0.00     0.237 C 
ATOM      8  O   UNL d   1      84.810  83.015  97.282  0.00  0.00    -0.645 OA
ATOM      9  OXT UNL d   1      85.699  80.952  96.896  0.00  0.00    -0.645 OA
ENDBRANCH   5   7
ENDBRANCH   4   5
ENDBRANCH   1   4
TORSDOF 3
ENDMDL
MODEL 11
REMARK VINA RESULT:      -3.5     21.249     22.736
REMARK  3 active torsions:
REMARK  status: ('A' for Active; 'I' for Inactive)
REMARK    1  A    between atoms: C_1  and  CA_3 
REMARK    2  A    between atoms: CA_3  and  C_5 
REMARK    3  A    between atoms: C_5  and  C_6 
ROOT
ATOM      1  C   UNL d   1      77.852  67.688  90.019  0.00  0.00     0.002 C 
ATOM      2  C   UNL d   1      78.102  67.370  91.497  0.00  0.00     0.072 C 
ATOM      3  N   UNL d   1      78.336  67.068  92.899  0.00  0.00    -0.086 N 
ENDROOT
BRANCH   1   4
ATOM      4  C   UNL d   1      77.602  68.006  88.542  0.00  0.00    -0.028 C 
BRANCH   4   5
ATOM      5  CA  UNL d   1      77.375  68.299  87.171  0.00  0.00     0.451 C 
ATOM      6  N   UNL d   1      78.332  67.788  86.236  0.00  0.00     0.642 N 
BRANCH   5   7
ATOM      7  C   UNL d   1      76.160  69.125  86.729  0.00  0.00     0.237 C 
ATOM      8  O   UNL d   1      75.264  69.304  87.607  0.00  0.00    -0.645 OA
ATOM      9  OXT UNL d   1      76.179  69.542  85.533  0.00  0.00    -0.645 OA
ENDBRANCH   5   7
ENDBRANCH   4   5
ENDBRANCH   1   4
TORSDOF 3
ENDMDL
MODEL 12
REMARK VINA RESULT:      -3.5     21.123     21.867
REMARK  3 active torsions:
REMARK  status: ('A' for Active; 'I' for Inactive)
REMARK    1  A    between atoms: C_1  and  CA_3 
REMARK    2  A    between atoms: CA_3  and  C_5 
REMARK    3  A    between atoms: C_5  and  C_6 
ROOT
ATOM      1  C   UNL d   1      76.461  71.226  89.042  0.00  0.00     0.002 C 
ATOM      2  C   UNL d   1      75.985  72.589  89.554  0.00  0.00     0.072 C 
ATOM      3  N   UNL d   1      75.534  73.883  90.039  0.00  0.00    -0.086 N 
ENDROOT
BRANCH   1   4
ATOM      4  C   UNL d   1      76.937  69.863  88.530  0.00  0.00    -0.028 C 
BRANCH   4   5
ATOM      5  CA  UNL d   1      77.381  68.599  88.058  0.00  0.00     0.451 C 
ATOM      6  N   UNL d   1      77.702  67.618  89.052  0.00  0.00     0.642 N 
BRANCH   5   7
ATOM      7  C   UNL d   1      77.506  68.314  86.556  0.00  0.00     0.237 C 
ATOM      8  O   UNL d   1      76.722  68.964  85.803  0.00  0.00    -0.645 OA
ATOM      9  OXT UNL d   1      78.380  67.458  86.226  0.00  0.00    -0.645 OA
ENDBRANCH   5   7
ENDBRANCH   4   5
ENDBRANCH   1   4
TORSDOF 3
ENDMDL
MODEL 13
REMARK VINA RESULT:      -3.2     26.934     28.732
REMARK  3 active torsions:
REMARK  status: ('A' for Active; 'I' for Inactive)
REMARK    1  A    between atoms: C_1  and  CA_3 
REMARK    2  A    between atoms: CA_3  and  C_5 
REMARK    3  A    between atoms: C_5  and  C_6 
ROOT
ATOM      1  C   UNL d   1      78.610  80.971  94.421  0.00  0.00     0.002 C 
ATOM      2  C   UNL d   1      77.698  80.927  93.191  0.00  0.00     0.072 C 
ATOM      3  N   UNL d   1      76.831  80.884  92.025  0.00  0.00    -0.086 N 
ENDROOT
BRANCH   1   4
ATOM      4  C   UNL d   1      79.522  81.015  95.651  0.00  0.00    -0.028 C 
BRANCH   4   5
ATOM      5  CA  UNL d   1      80.365  81.055  96.794  0.00  0.00     0.451 C 
ATOM      6  N   UNL d   1      80.232  79.978  97.729  0.00  0.00     0.642 N 
BRANCH   5   7
ATOM      7  C   UNL d   1      81.361  82.202  97.003  0.00  0.00     0.237 C 
ATOM      8  O   UNL d   1      81.478  82.624  98.192  0.00  0.00    -0.645 OA
ATOM      9  OXT UNL d   1      81.963  82.608  95.965  0.00  0.00    -0.645 OA
ENDBRANCH   5   7
ENDBRANCH   4   5
ENDBRANCH   1   4
TORSDOF 3
ENDMDL
MODEL 14
REMARK VINA RESULT:      -3.2     21.859     23.777
REMARK  3 active torsions:
REMARK  status: ('A' for Active; 'I' for Inactive)
REMARK    1  A    between atoms: C_1  and  CA_3 
REMARK    2  A    between atoms: CA_3  and  C_5 
REMARK    3  A    between atoms: C_5  and  C_6 
ROOT
ATOM      1  C   UNL d   1      77.307  67.985  87.842  0.00  0.00     0.002 C 
ATOM      2  C   UNL d   1      76.484  68.864  86.895  0.00  0.00     0.072 C 
ATOM      3  N   UNL d   1      75.702  69.697  85.996  0.00  0.00    -0.086 N 
ENDROOT
BRANCH   1   4
ATOM      4  C   UNL d   1      78.130  67.106  88.788  0.00  0.00    -0.028 C 
BRANCH   4   5
ATOM      5  CA  UNL d   1      78.894  66.287  89.663  0.00  0.00     0.451 C 
ATOM      6  N   UNL d   1      78.849  66.617  91.056  0.00  0.00     0.642 N 
BRANCH   5   7
ATOM      7  C   UNL d   1      79.721  65.112  89.126  0.00  0.00     0.237 C 
ATOM      8  O   UNL d   1      79.081  64.242  88.463  0.00  0.00    -0.645 OA
ATOM      9  OXT UNL d   1      80.957  65.133  89.402  0.00  0.00    -0.645 OA
ENDBRANCH   5   7
ENDBRANCH   4   5
ENDBRANCH   1   4
TORSDOF 3
ENDMDL
MODEL 15
REMARK VINA RESULT:      -3.2     29.213     29.865
REMARK  3 active torsions:
REMARK  status: ('A' for Active; 'I' for Inactive)
REMARK    1  A    between atoms: C_1  and  CA_3 
REMARK    2  A    between atoms: CA_3  and  C_5 
REMARK    3  A    between atoms: C_5  and  C_6 
ROOT
ATOM      1  C   UNL d   1      81.505  79.086  94.339  0.00  0.00     0.002 C 
ATOM      2  C   UNL d   1      81.911  78.144  93.201  0.00  0.00     0.072 C 
ATOM      3  N   UNL d   1      82.296  77.248  92.123  0.00  0.00    -0.086 N 
ENDROOT
BRANCH   1   4
ATOM      4  C   UNL d   1      81.099  80.029  95.476  0.00  0.00    -0.028 C 
BRANCH   4   5
ATOM      5  CA  UNL d   1      80.726  80.905  96.530  0.00  0.00     0.451 C 
ATOM      6  N   UNL d   1      79.558  80.551  97.279  0.00  0.00     0.642 N 
BRANCH   5   7
ATOM      7  C   UNL d   1      81.545  82.165  96.839  0.00  0.00     0.237 C 
ATOM      8  O   UNL d   1      81.507  82.569  98.039  0.00  0.00    -0.645 OA
ATOM      9  OXT UNL d   1      82.174  82.670  95.861  0.00  0.00    -0.645 OA
ENDBRANCH   5   7
ENDBRANCH   4   5
ENDBRANCH   1   4
TORSDOF 3
ENDMDL
MODEL 16
REMARK VINA RESULT:      -3.1     21.376     22.507
REMARK  3 active torsions:
REMARK  status: ('A' for Active; 'I' for Inactive)
REMARK    1  A    between atoms: C_1  and  CA_3 
REMARK    2  A    between atoms: CA_3  and  C_5 
REMARK    3  A    between atoms: C_5  and  C_6 
ROOT
ATOM      1  C   UNL d   1      65.598  87.871  92.492  0.00  0.00     0.002 C 
ATOM      2  C   UNL d   1      65.841  86.478  91.902  0.00  0.00     0.072 C 
ATOM      3  N   UNL d   1      66.072  85.158  91.339  0.00  0.00    -0.086 N 
ENDROOT
BRANCH   1   4
ATOM      4  C   UNL d   1      65.355  89.264  93.083  0.00  0.00    -0.028 C 
BRANCH   4   5
ATOM      5  CA  UNL d   1      65.126  90.554  93.630  0.00  0.00     0.451 C 
ATOM      6  N   UNL d   1      66.257  91.221  94.201  0.00  0.00     0.642 N 
BRANCH   5   7
ATOM      7  C   UNL d   1      63.729  91.188  93.603  0.00  0.00     0.237 C 
ATOM      8  O   UNL d   1      63.107  91.110  92.502  0.00  0.00    -0.645 OA
ATOM      9  OXT UNL d   1      63.344  91.724  94.684  0.00  0.00    -0.645 OA
ENDBRANCH   5   7
ENDBRANCH   4   5
ENDBRANCH   1   4
TORSDOF 3
ENDMDL
MODEL 17
REMARK VINA RESULT:      -3.1     29.449     30.914
REMARK  3 active torsions:
REMARK  status: ('A' for Active; 'I' for Inactive)
REMARK    1  A    between atoms: C_1  and  CA_3 
REMARK    2  A    between atoms: CA_3  and  C_5 
REMARK    3  A    between atoms: C_5  and  C_6 
ROOT
ATOM      1  C   UNL d   1      73.044  90.091 103.070  0.00  0.00     0.002 C 
ATOM      2  C   UNL d   1      73.990  90.797 104.047  0.00  0.00     0.072 C 
ATOM      3  N   UNL d   1      74.887  91.468 104.973  0.00  0.00    -0.086 N 
ENDROOT
BRANCH   1   4
ATOM      4  C   UNL d   1      72.098  89.386 102.093  0.00  0.00    -0.028 C 
BRANCH   4   5
ATOM      5  CA  UNL d   1      71.221  88.728 101.190  0.00  0.00     0.451 C 
ATOM      6  N   UNL d   1      69.876  88.518 101.637  0.00  0.00     0.642 N 
BRANCH   5   7
ATOM      7  C   UNL d   1      71.705  88.272  99.808  0.00  0.00     0.237 C 
ATOM      8  O   UNL d   1      70.798  88.027  98.957  0.00  0.00    -0.645 OA
ATOM      9  OXT UNL d   1      72.960  88.188  99.660  0.00  0.00    -0.645 OA
ENDBRANCH   5   7
ENDBRANCH   4   5
ENDBRANCH   1   4
TORSDOF 3
ENDMDL
MODEL 18
REMARK VINA RESULT:      -3.1     22.470     24.417
REMARK  3 active torsions:
REMARK  status: ('A' for Active; 'I' for Inactive)
REMARK    1  A    between atoms: C_1  and  CA_3 
REMARK    2  A    between atoms: CA_3  and  C_5 
REMARK    3  A    between atoms: C_5  and  C_6 
ROOT
ATOM      1  C   UNL d   1      77.802  66.961  88.055  0.00  0.00     0.002 C 
ATOM      2  C   UNL d   1      76.856  67.997  87.438  0.00  0.00     0.072 C 
ATOM      3  N   UNL d   1      75.960  68.979  86.851  0.00  0.00    -0.086 N 
ENDROOT
BRANCH   1   4
ATOM      4  C   UNL d   1      78.747  65.926  88.671  0.00  0.00    -0.028 C 
BRANCH   4   5
ATOM      5  CA  UNL d   1      79.626  64.965  89.239  0.00  0.00     0.451 C 
ATOM      6  N   UNL d   1      80.879  65.453  89.733  0.00  0.00     0.642 N 
BRANCH   5   7
ATOM      7  C   UNL d   1      79.239  63.483  89.312  0.00  0.00     0.237 C 
ATOM      8  O   UNL d   1      78.942  63.045  90.463  0.00  0.00    -0.645 OA
ATOM      9  OXT UNL d   1      79.255  62.852  88.214  0.00  0.00    -0.645 OA
ENDBRANCH   5   7
ENDBRANCH   4   5
ENDBRANCH   1   4
TORSDOF 3
ENDMDL
MODEL 19
REMARK VINA RESULT:      -3.1     23.111     24.243
REMARK  3 active torsions:
REMARK  status: ('A' for Active; 'I' for Inactive)
REMARK    1  A    between atoms: C_1  and  CA_3 
REMARK    2  A    between atoms: CA_3  and  C_5 
REMARK    3  A    between atoms: C_5  and  C_6 
ROOT
ATOM      1  C   UNL d   1      73.427  83.831  93.428  0.00  0.00     0.002 C 
ATOM      2  C   UNL d   1      71.991  84.351  93.542  0.00  0.00     0.072 C 
ATOM      3  N   UNL d   1      70.628  84.845  93.649  0.00  0.00    -0.086 N 
ENDROOT
BRANCH   1   4
ATOM      4  C   UNL d   1      74.863  83.310  93.313  0.00  0.00    -0.028 C 
BRANCH   4   5
ATOM      5  CA  UNL d   1      76.196  82.830  93.205  0.00  0.00     0.451 C 
ATOM      6  N   UNL d   1      76.913  82.640  94.430  0.00  0.00     0.642 N 
BRANCH   5   7
ATOM      7  C   UNL d   1      76.822  82.535  91.836  0.00  0.00     0.237 C 
ATOM      8  O   UNL d   1      77.109  83.547  91.129  0.00  0.00    -0.645 OA
ATOM      9  OXT UNL d   1      76.987  81.311  91.554  0.00  0.00    -0.645 OA
ENDBRANCH   5   7
ENDBRANCH   4   5
ENDBRANCH   1   4
TORSDOF 3
ENDMDL
MODEL 20
REMARK VINA RESULT:      -3.1     21.243     23.598
REMARK  3 active torsions:
REMARK  status: ('A' for Active; 'I' for Inactive)
REMARK    1  A    between atoms: C_1  and  CA_3 
REMARK    2  A    between atoms: CA_3  and  C_5 
REMARK    3  A    between atoms: C_5  and  C_6 
ROOT
ATOM      1  C   UNL d   1      79.137  66.845  89.538  0.00  0.00     0.002 C 
ATOM      2  C   UNL d   1      80.247  65.920  90.048  0.00  0.00     0.072 C 
ATOM      3  N   UNL d   1      81.301  65.044  90.531  0.00  0.00    -0.086 N 
ENDROOT
BRANCH   1   4
ATOM      4  C   UNL d   1      78.027  67.771  89.028  0.00  0.00    -0.028 C 
BRANCH   4   5
ATOM      5  CA  UNL d   1      77.001  68.630  88.552  0.00  0.00     0.451 C 
ATOM      6  N   UNL d   1      76.317  69.420  89.533  0.00  0.00     0.642 N 
BRANCH   5   7
ATOM      7  C   UNL d   1      76.655  68.698  87.060  0.00  0.00     0.237 C 
ATOM      8  O   UNL d   1      77.542  68.264  86.265  0.00  0.00    -0.645 OA
ATOM      9  OXT UNL d   1      75.518  69.181  86.776  0.00  0.00    -0.645 OA
ENDBRANCH   5   7
ENDBRANCH   4   5
ENDBRANCH   1   4
TORSDOF 3
ENDMDL
