MODEL 1
REMARK VINA RESULT:      -4.5      0.000      0.000
REMARK  1 active torsions:
REMARK  status: ('A' for Active; 'I' for Inactive)
REMARK    1  A    between atoms: CA_4  and  C_5 
ROOT
ATOM      1  CG1 VAL d   1      85.383  78.804  95.042  0.00  0.00     0.028 C 
ATOM      2  CB  VAL d   1      85.045  80.269  95.378  0.00  0.00    -0.025 C 
ATOM      3  CG2 VAL d   1      86.132  81.158  94.805  0.00  0.00     0.028 C 
ATOM      4  CA  VAL d   1      83.867  80.594  96.117  0.00  0.00     0.126 C 
ATOM      5  N   VAL d   1      82.996  79.521  96.544  0.00  0.00    -0.095 NA
ENDROOT
BRANCH   4   6
ATOM      6  C   VAL d   1      83.513  82.009  96.458  0.00  0.00     0.224 C 
ATOM      7  O   VAL d   1      82.594  82.516  95.746  0.00  0.00    -0.643 OA
ATOM      8  OXT VAL d   1      84.132  82.572  97.395  0.00  0.00    -0.643 OA
ENDBRANCH   4   6
TORSDOF 1
ENDMDL
MODEL 2
REMARK VINA RESULT:      -4.4      1.796      2.048
REMARK  1 active torsions:
REMARK  status: ('A' for Active; 'I' for Inactive)
REMARK    1  A    between atoms: CA_4  and  C_5 
ROOT
ATOM      1  CG1 VAL d   1      86.112  80.777  95.206  0.00  0.00     0.028 C 
ATOM      2  CB  VAL d   1      84.578  80.885  95.286  0.00  0.00    -0.025 C 
ATOM      3  CG2 VAL d   1      83.979  80.118  94.123  0.00  0.00     0.028 C 
ATOM      4  CA  VAL d   1      83.953  81.622  96.338  0.00  0.00     0.126 C 
ATOM      5  N   VAL d   1      84.788  82.264  97.328  0.00  0.00    -0.095 NA
ENDROOT
BRANCH   4   6
ATOM      6  C   VAL d   1      82.463  81.745  96.441  0.00  0.00     0.224 C 
ATOM      7  O   VAL d   1      81.967  82.742  95.834  0.00  0.00    -0.643 OA
ATOM      8  OXT VAL d   1      81.835  80.879  97.100  0.00  0.00    -0.643 OA
ENDBRANCH   4   6
TORSDOF 1
ENDMDL
MODEL 3
REMARK VINA RESULT:      -3.9      1.574      2.077
REMARK  1 active torsions:
REMARK  status: ('A' for Active; 'I' for Inactive)
REMARK    1  A    between atoms: CA_4  and  C_5 
ROOT
ATOM      1  CG1 VAL d   1      85.935  80.611  95.849  0.00  0.00     0.028 C 
ATOM      2  CB  VAL d   1      84.659  81.311  96.353  0.00  0.00    -0.025 C 
ATOM      3  CG2 VAL d   1      85.059  82.393  97.338  0.00  0.00     0.028 C 
ATOM      4  CA  VAL d   1      83.372  80.905  95.885  0.00  0.00     0.126 C 
ATOM      5  N   VAL d   1      83.289  79.824  94.928  0.00  0.00    -0.095 NA
ENDROOT
BRANCH   4   6
ATOM      6  C   VAL d   1      82.114  81.568  96.357  0.00  0.00     0.224 C 
ATOM      7  O   VAL d   1      81.449  80.904  97.210  0.00  0.00    -0.643 OA
ATOM      8  OXT VAL d   1      81.819  82.696  95.890  0.00  0.00    -0.643 OA
ENDBRANCH   4   6
TORSDOF 1
ENDMDL
MODEL 4
REMARK VINA RESULT:      -3.9      2.555      3.395
REMARK  1 active torsions:
REMARK  status: ('A' for Active; 'I' for Inactive)
REMARK    1  A    between atoms: CA_4  and  C_5 
ROOT
ATOM      1  CG1 VAL d   1      82.007  82.137  95.826  0.00  0.00     0.028 C 
ATOM      2  CB  VAL d   1      83.243  81.222  95.741  0.00  0.00    -0.025 C 
ATOM      3  CG2 VAL d   1      82.926  80.069  94.809  0.00  0.00     0.028 C 
ATOM      4  CA  VAL d   1      84.429  81.531  96.474  0.00  0.00     0.126 C 
ATOM      5  N   VAL d   1      84.448  82.719  97.299  0.00  0.00    -0.095 NA
ENDROOT
BRANCH   4   6
ATOM      6  C   VAL d   1      85.647  80.660  96.411  0.00  0.00     0.224 C 
ATOM      7  O   VAL d   1      85.876  79.986  97.460  0.00  0.00    -0.643 OA
ATOM      8  OXT VAL d   1      86.329  80.661  95.356  0.00  0.00    -0.643 OA
ENDBRANCH   4   6
TORSDOF 1
ENDMDL
MODEL 5
REMARK VINA RESULT:      -3.8      2.653      3.110
REMARK  1 active torsions:
REMARK  status: ('A' for Active; 'I' for Inactive)
REMARK    1  A    between atoms: CA_4  and  C_5 
ROOT
ATOM      1  CG1 VAL d   1      86.171  80.971  94.895  0.00  0.00     0.028 C 
ATOM      2  CB  VAL d   1      84.797  80.287  95.022  0.00  0.00    -0.025 C 
ATOM      3  CG2 VAL d   1      83.847  80.924  94.026  0.00  0.00     0.028 C 
ATOM      4  CA  VAL d   1      84.591  79.235  95.967  0.00  0.00     0.126 C 
ATOM      5  N   VAL d   1      85.697  78.825  96.803  0.00  0.00    -0.095 NA
ENDROOT
BRANCH   4   6
ATOM      6  C   VAL d   1      83.266  78.551  96.112  0.00  0.00     0.224 C 
ATOM      7  O   VAL d   1      82.463  79.109  96.920  0.00  0.00    -0.643 OA
ATOM      8  OXT VAL d   1      83.054  77.509  95.443  0.00  0.00    -0.643 OA
ENDBRANCH   4   6
TORSDOF 1
ENDMDL
MODEL 6
REMARK VINA RESULT:      -3.7     16.234     16.860
REMARK  1 active torsions:
REMARK  status: ('A' for Active; 'I' for Inactive)
REMARK    1  A    between atoms: CA_4  and  C_5 
ROOT
ATOM      1  CG1 VAL d   1      76.049  69.452  85.935  0.00  0.00     0.028 C 
ATOM      2  CB  VAL d   1      76.534  68.950  87.308  0.00  0.00    -0.025 C 
ATOM      3  CG2 VAL d   1      75.663  69.570  88.383  0.00  0.00     0.028 C 
ATOM      4  CA  VAL d   1      77.637  68.047  87.406  0.00  0.00     0.126 C 
ATOM      5  N   VAL d   1      78.290  67.613  86.192  0.00  0.00    -0.095 NA
ENDROOT
BRANCH   4   6
ATOM      6  C   VAL d   1      78.130  67.542  88.728  0.00  0.00     0.224 C 
ATOM      7  O   VAL d   1      77.761  66.364  89.021  0.00  0.00    -0.643 OA
ATOM      8  OXT VAL d   1      78.849  68.298  89.427  0.00  0.00    -0.643 OA
ENDBRANCH   4   6
TORSDOF 1
ENDMDL
MODEL 7
REMARK VINA RESULT:      -3.7     21.067     22.258
REMARK  1 active torsions:
REMARK  status: ('A' for Active; 'I' for Inactive)
REMARK    1  A    between atoms: CA_4  and  C_5 
ROOT
ATOM      1  CG1 VAL d   1      66.239  88.724  93.377  0.00  0.00     0.028 C 
ATOM      2  CB  VAL d   1      65.078  89.415  92.638  0.00  0.00    -0.025 C 
ATOM      3  CG2 VAL d   1      64.495  88.437  91.635  0.00  0.00     0.028 C 
ATOM      4  CA  VAL d   1      64.717  90.762  92.947  0.00  0.00     0.126 C 
ATOM      5  N   VAL d   1      65.461  91.465  93.967  0.00  0.00    -0.095 NA
ENDROOT
BRANCH   4   6
ATOM      6  C   VAL d   1      63.592  91.459  92.244  0.00  0.00     0.224 C 
ATOM      7  O   VAL d   1      62.622  91.792  92.989  0.00  0.00    -0.643 OA
ATOM      8  OXT VAL d   1      63.690  91.657  91.007  0.00  0.00    -0.643 OA
ENDBRANCH   4   6
TORSDOF 1
ENDMDL
MODEL 8
REMARK VINA RESULT:      -3.7     16.423     17.101
REMARK  1 active torsions:
REMARK  status: ('A' for Active; 'I' for Inactive)
REMARK    1  A    between atoms: CA_4  and  C_5 
ROOT
ATOM      1  CG1 VAL d   1      75.622  69.882  88.715  0.00  0.00     0.028 C 
ATOM      2  CB  VAL d   1      76.376  68.997  87.705  0.00  0.00    -0.025 C 
ATOM      3  CG2 VAL d   1      75.869  69.315  86.312  0.00  0.00     0.028 C 
ATOM      4  CA  VAL d   1      77.369  68.070  88.148  0.00  0.00     0.126 C 
ATOM      5  N   VAL d   1      77.652  67.977  89.563  0.00  0.00    -0.095 NA
ENDROOT
BRANCH   4   6
ATOM      6  C   VAL d   1      78.119  67.196  87.189  0.00  0.00     0.224 C 
ATOM      7  O   VAL d   1      78.290  66.001  87.577  0.00  0.00    -0.643 OA
ATOM      8  OXT VAL d   1      78.510  67.696  86.105  0.00  0.00    -0.643 OA
ENDBRANCH   4   6
TORSDOF 1
ENDMDL
MODEL 9
REMARK VINA RESULT:      -3.7     16.397     16.992
REMARK  1 active torsions:
REMARK  status: ('A' for Active; 'I' for Inactive)
REMARK    1  A    between atoms: CA_4  and  C_5 
ROOT
ATOM      1  CG1 VAL d   1      78.383  66.704  90.439  0.00  0.00     0.028 C 
ATOM      2  CB  VAL d   1      78.004  66.781  88.948  0.00  0.00    -0.025 C 
ATOM      3  CG2 VAL d   1      77.605  65.395  88.480  0.00  0.00     0.028 C 
ATOM      4  CA  VAL d   1      78.065  68.023  88.244  0.00  0.00     0.126 C 
ATOM      5  N   VAL d   1      78.489  69.207  88.958  0.00  0.00    -0.095 NA
ENDROOT
BRANCH   4   6
ATOM      6  C   VAL d   1      77.703  68.128  86.794  0.00  0.00     0.224 C 
ATOM      7  O   VAL d   1      78.488  67.522  86.003  0.00  0.00    -0.643 OA
ATOM      8  OXT VAL d   1      76.681  68.786  86.479  0.00  0.00    -0.643 OA
ENDBRANCH   4   6
TORSDOF 1
ENDMDL
MODEL 10
REMARK VINA RESULT:      -3.6     22.546     23.178
REMARK  1 active torsions:
REMARK  status: ('A' for Active; 'I' for Inactive)
REMARK    1  A    between atoms: CA_4  and  C_5 
ROOT
ATOM      1  CG1 VAL d   1      63.855  88.808  90.802  0.00  0.00     0.028 C 
ATOM      2  CB  VAL d   1      63.680  90.083  91.648  0.00  0.00    -0.025 C 
ATOM      3  CG2 VAL d   1      64.036  91.282  90.792  0.00  0.00     0.028 C 
ATOM      4  CA  VAL d   1      63.246  90.002  93.007  0.00  0.00     0.126 C 
ATOM      5  N   VAL d   1      62.975  88.700  93.574  0.00  0.00    -0.095 NA
ENDROOT
BRANCH   4   6
ATOM      6  C   VAL d   1      63.068  91.225  93.854  0.00  0.00     0.224 C 
ATOM      7  O   VAL d   1      64.095  91.574  94.510  0.00  0.00    -0.643 OA
ATOM      8  OXT VAL d   1      61.949  91.796  93.851  0.00  0.00    -0.643 OA
ENDBRANCH   4   6
TORSDOF 1
ENDMDL
MODEL 11
REMARK VINA RESULT:      -3.6     15.625     16.234
REMARK  1 active torsions:
REMARK  status: ('A' for Active; 'I' for Inactive)
REMARK    1  A    between atoms: CA_4  and  C_5 
ROOT
ATOM      1  CG1 VAL d   1      78.101  67.641  86.479  0.00  0.00     0.028 C 
ATOM      2  CB  VAL d   1      77.448  68.410  87.642  0.00  0.00    -0.025 C 
ATOM      3  CG2 VAL d   1      78.124  67.995  88.935  0.00  0.00     0.028 C 
ATOM      4  CA  VAL d   1      76.386  69.334  87.400  0.00  0.00     0.126 C 
ATOM      5  N   VAL d   1      75.935  69.535  86.041  0.00  0.00    -0.095 NA
ENDROOT
BRANCH   4   6
ATOM      6  C   VAL d   1      75.732  70.096  88.512  0.00  0.00     0.224 C 
ATOM      7  O   VAL d   1      76.369  71.119  88.905  0.00  0.00    -0.643 OA
ATOM      8  OXT VAL d   1      74.635  69.678  88.959  0.00  0.00    -0.643 OA
ENDBRANCH   4   6
TORSDOF 1
ENDMDL
MODEL 12
REMARK VINA RESULT:      -3.6     15.746     16.323
REMARK  1 active torsions:
REMARK  status: ('A' for Active; 'I' for Inactive)
REMARK    1  A    between atoms: CA_4  and  C_5 
ROOT
ATOM      1  CG1 VAL d   1      78.473  66.940  88.794  0.00  0.00     0.028 C 
ATOM      2  CB  VAL d   1      77.752  67.926  87.856  0.00  0.00    -0.025 C 
ATOM      3  CG2 VAL d   1      78.188  67.644  86.432  0.00  0.00     0.028 C 
ATOM      4  CA  VAL d   1      76.845  68.898  88.380  0.00  0.00     0.126 C 
ATOM      5  N   VAL d   1      76.617  68.938  89.807  0.00  0.00    -0.095 NA
ENDROOT
BRANCH   4   6
ATOM      6  C   VAL d   1      76.129  69.870  87.492  0.00  0.00     0.224 C 
ATOM      7  O   VAL d   1      76.399  71.090  87.709  0.00  0.00    -0.643 OA
ATOM      8  OXT VAL d   1      75.340  69.419  86.625  0.00  0.00    -0.643 OA
ENDBRANCH   4   6
TORSDOF 1
ENDMDL
MODEL 13
REMARK VINA RESULT:      -3.6     15.516     16.414
REMARK  1 active torsions:
REMARK  status: ('A' for Active; 'I' for Inactive)
REMARK    1  A    between atoms: CA_4  and  C_5 
ROOT
ATOM      1  CG1 VAL d   1      76.814  70.946  88.765  0.00  0.00     0.028 C 
ATOM      2  CB  VAL d   1      77.696  69.744  88.376  0.00  0.00    -0.025 C 
ATOM      3  CG2 VAL d   1      79.076  69.945  88.972  0.00  0.00     0.028 C 
ATOM      4  CA  VAL d   1      77.169  68.682  87.579  0.00  0.00     0.126 C 
ATOM      5  N   VAL d   1      75.793  68.757  87.143  0.00  0.00    -0.095 NA
ENDROOT
BRANCH   4   6
ATOM      6  C   VAL d   1      78.003  67.501  87.185  0.00  0.00     0.224 C 
ATOM      7  O   VAL d   1      78.489  67.557  86.015  0.00  0.00    -0.643 OA
ATOM      8  OXT VAL d   1      78.156  66.573  88.017  0.00  0.00    -0.643 OA
ENDBRANCH   4   6
TORSDOF 1
ENDMDL
MODEL 14
REMARK VINA RESULT:      -3.6     14.057     14.804
REMARK  1 active torsions:
REMARK  status: ('A' for Active; 'I' for Inactive)
REMARK    1  A    between atoms: CA_4  and  C_5 
ROOT
ATOM      1  CG1 VAL d   1      75.688  73.894  90.121  0.00  0.00     0.028 C 
ATOM      2  CB  VAL d   1      75.489  72.375  89.972  0.00  0.00    -0.025 C 
ATOM      3  CG2 VAL d   1      76.626  71.819  89.136  0.00  0.00     0.028 C 
ATOM      4  CA  VAL d   1      74.370  71.723  90.575  0.00  0.00     0.126 C 
ATOM      5  N   VAL d   1      73.426  72.518  91.329  0.00  0.00    -0.095 NA
ENDROOT
BRANCH   4   6
ATOM      6  C   VAL d   1      74.151  70.246  90.446  0.00  0.00     0.224 C 
ATOM      7  O   VAL d   1      74.945  69.528  91.126  0.00  0.00    -0.643 OA
ATOM      8  OXT VAL d   1      73.227  69.841  89.698  0.00  0.00    -0.643 OA
ENDBRANCH   4   6
TORSDOF 1
ENDMDL
MODEL 15
REMARK VINA RESULT:      -3.6      4.123      4.723
REMARK  1 active torsions:
REMARK  status: ('A' for Active; 'I' for Inactive)
REMARK    1  A    between atoms: CA_4  and  C_5 
ROOT
ATOM      1  CG1 VAL d   1      79.883  80.037  94.890  0.00  0.00     0.028 C 
ATOM      2  CB  VAL d   1      79.659  81.051  96.028  0.00  0.00    -0.025 C 
ATOM      3  CG2 VAL d   1      78.268  81.638  95.883  0.00  0.00     0.028 C 
ATOM      4  CA  VAL d   1      80.681  81.299  96.994  0.00  0.00     0.126 C 
ATOM      5  N   VAL d   1      81.931  80.581  96.885  0.00  0.00    -0.095 NA
ENDROOT
BRANCH   4   6
ATOM      6  C   VAL d   1      80.491  82.278  98.112  0.00  0.00     0.224 C 
ATOM      7  O   VAL d   1      80.430  83.493  97.752  0.00  0.00    -0.643 OA
ATOM      8  OXT VAL d   1      80.408  81.839  99.286  0.00  0.00    -0.643 OA
ENDBRANCH   4   6
TORSDOF 1
ENDMDL
MODEL 16
REMARK VINA RESULT:      -3.5      1.771      1.955
REMARK  1 active torsions:
REMARK  status: ('A' for Active; 'I' for Inactive)
REMARK    1  A    between atoms: CA_4  and  C_5 
ROOT
ATOM      1  CG1 VAL d   1      82.538  79.091  93.880  0.00  0.00     0.028 C 
ATOM      2  CB  VAL d   1      83.172  80.314  94.569  0.00  0.00    -0.025 C 
ATOM      3  CG2 VAL d   1      83.279  81.438  93.556  0.00  0.00     0.028 C 
ATOM      4  CA  VAL d   1      83.550  80.260  95.945  0.00  0.00     0.126 C 
ATOM      5  N   VAL d   1      83.327  79.035  96.680  0.00  0.00    -0.095 NA
ENDROOT
BRANCH   4   6
ATOM      6  C   VAL d   1      84.168  81.434  96.642  0.00  0.00     0.224 C 
ATOM      7  O   VAL d   1      83.341  82.280  97.098  0.00  0.00    -0.643 OA
ATOM      8  OXT VAL d   1      85.420  81.492  96.721  0.00  0.00    -0.643 OA
ENDBRANCH   4   6
TORSDOF 1
ENDMDL
MODEL 17
REMARK VINA RESULT:      -3.5     22.118     23.222
REMARK  1 active torsions:
REMARK  status: ('A' for Active; 'I' for Inactive)
REMARK    1  A    between atoms: CA_4  and  C_5 
ROOT
ATOM      1  CG1 VAL d   1      62.725  87.502  95.960  0.00  0.00     0.028 C 
ATOM      2  CB  VAL d   1      63.170  88.739  95.158  0.00  0.00    -0.025 C 
ATOM      3  CG2 VAL d   1      64.346  88.349  94.283  0.00  0.00     0.028 C 
ATOM      4  CA  VAL d   1      62.494  89.988  95.311  0.00  0.00     0.126 C 
ATOM      5  N   VAL d   1      61.384  90.070  96.234  0.00  0.00    -0.095 NA
ENDROOT
BRANCH   4   6
ATOM      6  C   VAL d   1      62.905  91.208  94.544  0.00  0.00     0.224 C 
ATOM      7  O   VAL d   1      64.037  91.683  94.862  0.00  0.00    -0.643 OA
ATOM      8  OXT VAL d   1      62.122  91.657  93.669  0.00  0.00    -0.643 OA
ENDBRANCH   4   6
TORSDOF 1
ENDMDL
MODEL 18
REMARK VINA RESULT:      -3.4     15.997     16.671
REMARK  1 active torsions:
REMARK  status: ('A' for Active; 'I' for Inactive)
REMARK    1  A    between atoms: CA_4  and  C_5 
ROOT
ATOM      1  CG1 VAL d   1      72.232  88.738 105.830  0.00  0.00     0.028 C 
ATOM      2  CB  VAL d   1      72.026  88.678 104.305  0.00  0.00    -0.025 C 
ATOM      3  CG2 VAL d   1      71.340  87.371 103.961  0.00  0.00     0.028 C 
ATOM      4  CA  VAL d   1      72.460  89.753 103.469  0.00  0.00     0.126 C 
ATOM      5  N   VAL d   1      73.097  90.897 104.081  0.00  0.00    -0.095 NA
ENDROOT
BRANCH   4   6
ATOM      6  C   VAL d   1      72.272  89.723 101.982  0.00  0.00     0.224 C 
ATOM      7  O   VAL d   1      73.246  89.237 101.331  0.00  0.00    -0.643 OA
ATOM      8  OXT VAL d   1      71.198  90.167 101.505  0.00  0.00    -0.643 OA
ENDBRANCH   4   6
TORSDOF 1
ENDMDL
MODEL 19
REMARK VINA RESULT:      -3.4      4.668      5.507
REMARK  1 active torsions:
REMARK  status: ('A' for Active; 'I' for Inactive)
REMARK    1  A    between atoms: CA_4  and  C_5 
ROOT
ATOM      1  CG1 VAL d   1      78.116  81.522  95.107  0.00  0.00     0.028 C 
ATOM      2  CB  VAL d   1      79.203  81.422  96.193  0.00  0.00    -0.025 C 
ATOM      3  CG2 VAL d   1      80.130  80.274  95.843  0.00  0.00     0.028 C 
ATOM      4  CA  VAL d   1      79.217  82.329  97.297  0.00  0.00     0.126 C 
ATOM      5  N   VAL d   1      78.189  83.343  97.375  0.00  0.00    -0.095 NA
ENDROOT
BRANCH   4   6
ATOM      6  C   VAL d   1      80.262  82.255  98.368  0.00  0.00     0.224 C 
ATOM      7  O   VAL d   1      79.865  81.766  99.468  0.00  0.00    -0.643 OA
ATOM      8  OXT VAL d   1      81.418  82.671  98.105  0.00  0.00    -0.643 OA
ENDBRANCH   4   6
TORSDOF 1
ENDMDL
MODEL 20
REMARK VINA RESULT:      -3.3     21.797     22.876
REMARK  1 active torsions:
REMARK  status: ('A' for Active; 'I' for Inactive)
REMARK    1  A    between atoms: CA_4  and  C_5 
ROOT
ATOM      1  CG1 VAL d   1      65.123  89.501  96.294  0.00  0.00     0.028 C 
ATOM      2  CB  VAL d   1      63.964  89.820  95.332  0.00  0.00    -0.025 C 
ATOM      3  CG2 VAL d   1      62.793  88.918  95.671  0.00  0.00     0.028 C 
ATOM      4  CA  VAL d   1      64.105  90.827  94.329  0.00  0.00     0.126 C 
ATOM      5  N   VAL d   1      65.358  91.542  94.233  0.00  0.00    -0.095 NA
ENDROOT
BRANCH   4   6
ATOM      6  C   VAL d   1      62.995  91.158  93.379  0.00  0.00     0.224 C 
ATOM      7  O   VAL d   1      63.097  90.627  92.232  0.00  0.00    -0.643 OA
ATOM      8  OXT VAL d   1      62.073  91.914  93.776  0.00  0.00    -0.643 OA
ENDBRANCH   4   6
TORSDOF 1
ENDMDL
