MODEL 1
REMARK VINA RESULT:      -3.8      0.000      0.000
REMARK  4 active torsions:
REMARK  status: ('A' for Active; 'I' for Inactive)
REMARK    1  A    between atoms: CG_1  and  CD_2 
REMARK    2  A    between atoms: CG_1  and  CB_5 
REMARK    3  A    between atoms: CB_5  and  CA_6 
REMARK    4  A    between atoms: CA_6  and  C_7 
ROOT
ATOM      1  CD  LYS d   1      78.158  67.313  89.298  0.00  0.00     0.012 C 
ATOM      2  CE  LYS d   1      79.083  66.096  89.193  0.00  0.00     0.073 C 
ATOM      3  NZ  LYS d   1      79.958  64.940  89.093  0.00  0.00    -0.086 N 
ENDROOT
BRANCH   1   4
ATOM      4  CG  LYS d   1      77.233  68.528  89.403  0.00  0.00    -0.010 C 
BRANCH   4   5
ATOM      5  CB  LYS d   1      76.307  69.744  89.507  0.00  0.00    -0.029 C 
BRANCH   5   6
ATOM      6  CA  LYS d   1      75.446  70.870  89.604  0.00  0.00     0.451 C 
ATOM      7  N   LYS d   1      75.947  72.111  89.093  0.00  0.00     0.642 N 
BRANCH   6   8
ATOM      8  C   LYS d   1      74.050  70.747  90.229  0.00  0.00     0.237 C 
ATOM      9  O   LYS d   1      73.373  69.736  89.875  0.00  0.00    -0.645 OA
ATOM     10  OXT LYS d   1      73.719  71.668  91.033  0.00  0.00    -0.645 OA
ENDBRANCH   6   8
ENDBRANCH   5   6
ENDBRANCH   4   5
ENDBRANCH   1   4
TORSDOF 4
ENDMDL
MODEL 2
REMARK VINA RESULT:      -3.7      2.451      2.826
REMARK  4 active torsions:
REMARK  status: ('A' for Active; 'I' for Inactive)
REMARK    1  A    between atoms: CG_1  and  CD_2 
REMARK    2  A    between atoms: CG_1  and  CB_5 
REMARK    3  A    between atoms: CB_5  and  CA_6 
REMARK    4  A    between atoms: CA_6  and  C_7 
ROOT
ATOM      1  CD  LYS d   1      78.271  65.560  88.335  0.00  0.00     0.012 C 
ATOM      2  CE  LYS d   1      78.957  64.237  88.691  0.00  0.00     0.073 C 
ATOM      3  NZ  LYS d   1      79.609  62.983  89.027  0.00  0.00    -0.086 N 
ENDROOT
BRANCH   1   4
ATOM      4  CG  LYS d   1      77.587  66.883  87.979  0.00  0.00    -0.010 C 
BRANCH   4   5
ATOM      5  CB  LYS d   1      76.903  68.206  87.623  0.00  0.00    -0.029 C 
BRANCH   5   6
ATOM      6  CA  LYS d   1      76.270  69.434  87.292  0.00  0.00     0.451 C 
ATOM      7  N   LYS d   1      75.832  69.589  85.937  0.00  0.00     0.642 N 
BRANCH   6   8
ATOM      8  C   LYS d   1      76.074  70.532  88.346  0.00  0.00     0.237 C 
ATOM      9  O   LYS d   1      76.457  71.692  88.013  0.00  0.00    -0.645 OA
ATOM     10  OXT LYS d   1      75.548  70.164  89.438  0.00  0.00    -0.645 OA
ENDBRANCH   6   8
ENDBRANCH   5   6
ENDBRANCH   4   5
ENDBRANCH   1   4
TORSDOF 4
ENDMDL
MODEL 3
REMARK VINA RESULT:      -3.6     21.392     23.872
REMARK  4 active torsions:
REMARK  status: ('A' for Active; 'I' for Inactive)
REMARK    1  A    between atoms: CG_1  and  CD_2 
REMARK    2  A    between atoms: CG_1  and  CB_5 
REMARK    3  A    between atoms: CB_5  and  CA_6 
REMARK    4  A    between atoms: CA_6  and  C_7 
ROOT
ATOM      1  CD  LYS d   1      73.281  90.260 103.694  0.00  0.00     0.012 C 
ATOM      2  CE  LYS d   1      73.862  91.015 104.893  0.00  0.00     0.073 C 
ATOM      3  NZ  LYS d   1      74.415  91.734 106.028  0.00  0.00    -0.086 N 
ENDROOT
BRANCH   1   4
ATOM      4  CG  LYS d   1      72.700  89.505 102.495  0.00  0.00    -0.010 C 
BRANCH   4   5
ATOM      5  CB  LYS d   1      72.119  88.751 101.295  0.00  0.00    -0.029 C 
BRANCH   5   6
ATOM      6  CA  LYS d   1      71.580  88.048 100.183  0.00  0.00     0.451 C 
ATOM      7  N   LYS d   1      70.186  88.237  99.915  0.00  0.00     0.642 N 
BRANCH   6   8
ATOM      8  C   LYS d   1      72.463  87.136  99.322  0.00  0.00     0.237 C 
ATOM      9  O   LYS d   1      73.548  87.644  98.911  0.00  0.00    -0.645 OA
ATOM     10  OXT LYS d   1      72.015  85.970  99.112  0.00  0.00    -0.645 OA
ENDBRANCH   6   8
ENDBRANCH   5   6
ENDBRANCH   4   5
ENDBRANCH   1   4
TORSDOF 4
ENDMDL
MODEL 4
REMARK VINA RESULT:      -3.6      2.765      3.510
REMARK  4 active torsions:
REMARK  status: ('A' for Active; 'I' for Inactive)
REMARK    1  A    between atoms: CG_1  and  CD_2 
REMARK    2  A    between atoms: CG_1  and  CB_5 
REMARK    3  A    between atoms: CB_5  and  CA_6 
REMARK    4  A    between atoms: CA_6  and  C_7 
ROOT
ATOM      1  CD  LYS d   1      78.815  64.687  88.529  0.00  0.00     0.012 C 
ATOM      2  CE  LYS d   1      79.307  63.247  88.705  0.00  0.00     0.073 C 
ATOM      3  NZ  LYS d   1      79.772  61.881  88.874  0.00  0.00    -0.086 N 
ENDROOT
BRANCH   1   4
ATOM      4  CG  LYS d   1      78.323  66.126  88.355  0.00  0.00    -0.010 C 
BRANCH   4   5
ATOM      5  CB  LYS d   1      77.831  67.566  88.180  0.00  0.00    -0.029 C 
BRANCH   5   6
ATOM      6  CA  LYS d   1      77.372  68.901  88.017  0.00  0.00     0.451 C 
ATOM      7  N   LYS d   1      78.149  69.931  88.639  0.00  0.00     0.642 N 
BRANCH   6   8
ATOM      8  C   LYS d   1      76.103  69.208  87.210  0.00  0.00     0.237 C 
ATOM      9  O   LYS d   1      75.049  69.395  87.887  0.00  0.00    -0.645 OA
ATOM     10  OXT LYS d   1      76.241  69.242  85.951  0.00  0.00    -0.645 OA
ENDBRANCH   6   8
ENDBRANCH   5   6
ENDBRANCH   4   5
ENDBRANCH   1   4
TORSDOF 4
ENDMDL
MODEL 5
REMARK VINA RESULT:      -3.6     24.184     24.597
REMARK  4 active torsions:
REMARK  status: ('A' for Active; 'I' for Inactive)
REMARK    1  A    between atoms: CG_1  and  CD_2 
REMARK    2  A    between atoms: CG_1  and  CB_5 
REMARK    3  A    between atoms: CB_5  and  CA_6 
REMARK    4  A    between atoms: CA_6  and  C_7 
ROOT
ATOM      1  CD  LYS d   1      61.218  87.478  90.322  0.00  0.00     0.012 C 
ATOM      2  CE  LYS d   1      60.141  86.648  89.616  0.00  0.00     0.073 C 
ATOM      3  NZ  LYS d   1      59.120  85.862  88.944  0.00  0.00    -0.086 N 
ENDROOT
BRANCH   1   4
ATOM      4  CG  LYS d   1      62.294  88.309  91.026  0.00  0.00    -0.010 C 
BRANCH   4   5
ATOM      5  CB  LYS d   1      63.371  89.140  91.730  0.00  0.00    -0.029 C 
BRANCH   5   6
ATOM      6  CA  LYS d   1      64.371  89.910  92.382  0.00  0.00     0.451 C 
ATOM      7  N   LYS d   1      65.554  89.215  92.793  0.00  0.00     0.642 N 
BRANCH   6   8
ATOM      8  C   LYS d   1      64.178  91.413  92.625  0.00  0.00     0.237 C 
ATOM      9  O   LYS d   1      65.031  91.965  93.381  0.00  0.00    -0.645 OA
ATOM     10  OXT LYS d   1      63.187  91.946  92.044  0.00  0.00    -0.645 OA
ENDBRANCH   6   8
ENDBRANCH   5   6
ENDBRANCH   4   5
ENDBRANCH   1   4
TORSDOF 4
ENDMDL
MODEL 6
REMARK VINA RESULT:      -3.5      5.159      7.415
REMARK  4 active torsions:
REMARK  status: ('A' for Active; 'I' for Inactive)
REMARK    1  A    between atoms: CG_1  and  CD_2 
REMARK    2  A    between atoms: CG_1  and  CB_5 
REMARK    3  A    between atoms: CB_5  and  CA_6 
REMARK    4  A    between atoms: CA_6  and  C_7 
ROOT
ATOM      1  CD  LYS d   1      77.412  67.622  87.366  0.00  0.00     0.012 C 
ATOM      2  CE  LYS d   1      76.540  68.723  86.755  0.00  0.00     0.073 C 
ATOM      3  NZ  LYS d   1      75.713  69.766  86.172  0.00  0.00    -0.086 N 
ENDROOT
BRANCH   1   4
ATOM      4  CG  LYS d   1      78.284  66.521  87.976  0.00  0.00    -0.010 C 
BRANCH   4   5
ATOM      5  CB  LYS d   1      79.156  65.420  88.587  0.00  0.00    -0.029 C 
BRANCH   5   6
ATOM      6  CA  LYS d   1      79.966  64.398  89.150  0.00  0.00     0.451 C 
ATOM      7  N   LYS d   1      81.284  64.775  89.567  0.00  0.00     0.642 N 
BRANCH   6   8
ATOM      8  C   LYS d   1      79.440  62.964  89.299  0.00  0.00     0.237 C 
ATOM      9  O   LYS d   1      79.345  62.296  88.227  0.00  0.00    -0.645 OA
ATOM     10  OXT LYS d   1      79.156  62.597  90.477  0.00  0.00    -0.645 OA
ENDBRANCH   6   8
ENDBRANCH   5   6
ENDBRANCH   4   5
ENDBRANCH   1   4
TORSDOF 4
ENDMDL
MODEL 7
REMARK VINA RESULT:      -3.5     20.800     23.047
REMARK  4 active torsions:
REMARK  status: ('A' for Active; 'I' for Inactive)
REMARK    1  A    between atoms: CG_1  and  CD_2 
REMARK    2  A    between atoms: CG_1  and  CB_5 
REMARK    3  A    between atoms: CB_5  and  CA_6 
REMARK    4  A    between atoms: CA_6  and  C_7 
ROOT
ATOM      1  CD  LYS d   1      67.243  87.306  93.685  0.00  0.00     0.012 C 
ATOM      2  CE  LYS d   1      68.271  86.336  94.277  0.00  0.00     0.073 C 
ATOM      3  NZ  LYS d   1      69.243  85.415  94.841  0.00  0.00    -0.086 N 
ENDROOT
BRANCH   1   4
ATOM      4  CG  LYS d   1      66.216  88.275  93.094  0.00  0.00    -0.010 C 
BRANCH   4   5
ATOM      5  CB  LYS d   1      65.188  89.244  92.503  0.00  0.00    -0.029 C 
BRANCH   5   6
ATOM      6  CA  LYS d   1      64.236  90.144  91.953  0.00  0.00     0.451 C 
ATOM      7  N   LYS d   1      63.572  89.727  90.754  0.00  0.00     0.642 N 
BRANCH   6   8
ATOM      8  C   LYS d   1      63.944  91.494  92.623  0.00  0.00     0.237 C 
ATOM      9  O   LYS d   1      62.747  91.900  92.550  0.00  0.00    -0.645 OA
ATOM     10  OXT LYS d   1      64.931  92.061  93.179  0.00  0.00    -0.645 OA
ENDBRANCH   6   8
ENDBRANCH   5   6
ENDBRANCH   4   5
ENDBRANCH   1   4
TORSDOF 4
ENDMDL
MODEL 8
REMARK VINA RESULT:      -3.4      3.434      4.049
REMARK  4 active torsions:
REMARK  status: ('A' for Active; 'I' for Inactive)
REMARK    1  A    between atoms: CG_1  and  CD_2 
REMARK    2  A    between atoms: CG_1  and  CB_5 
REMARK    3  A    between atoms: CB_5  and  CA_6 
REMARK    4  A    between atoms: CA_6  and  C_7 
ROOT
ATOM      1  CD  LYS d   1      78.114  66.813  91.405  0.00  0.00     0.012 C 
ATOM      2  CE  LYS d   1      78.382  66.327  92.833  0.00  0.00     0.073 C 
ATOM      3  NZ  LYS d   1      78.636  65.863  94.186  0.00  0.00    -0.086 N 
ENDROOT
BRANCH   1   4
ATOM      4  CG  LYS d   1      77.847  67.297  89.978  0.00  0.00    -0.010 C 
BRANCH   4   5
ATOM      5  CB  LYS d   1      77.580  67.782  88.550  0.00  0.00    -0.029 C 
BRANCH   5   6
ATOM      6  CA  LYS d   1      77.333  68.235  87.225  0.00  0.00     0.451 C 
ATOM      7  N   LYS d   1      78.262  67.818  86.218  0.00  0.00     0.642 N 
BRANCH   6   8
ATOM      8  C   LYS d   1      76.125  69.126  86.906  0.00  0.00     0.237 C 
ATOM      9  O   LYS d   1      76.003  69.479  85.696  0.00  0.00    -0.645 OA
ATOM     10  OXT LYS d   1      75.377  69.416  87.886  0.00  0.00    -0.645 OA
ENDBRANCH   6   8
ENDBRANCH   5   6
ENDBRANCH   4   5
ENDBRANCH   1   4
TORSDOF 4
ENDMDL
MODEL 9
REMARK VINA RESULT:      -3.4      3.308      6.267
REMARK  4 active torsions:
REMARK  status: ('A' for Active; 'I' for Inactive)
REMARK    1  A    between atoms: CG_1  and  CD_2 
REMARK    2  A    between atoms: CG_1  and  CB_5 
REMARK    3  A    between atoms: CB_5  and  CA_6 
REMARK    4  A    between atoms: CA_6  and  C_7 
ROOT
ATOM      1  CD  LYS d   1      74.830  72.081  90.356  0.00  0.00     0.012 C 
ATOM      2  CE  LYS d   1      74.098  73.229  91.058  0.00  0.00     0.073 C 
ATOM      3  NZ  LYS d   1      73.406  74.318  91.727  0.00  0.00    -0.086 N 
ENDROOT
BRANCH   1   4
ATOM      4  CG  LYS d   1      75.562  70.933  89.656  0.00  0.00    -0.010 C 
BRANCH   4   5
ATOM      5  CB  LYS d   1      76.294  69.784  88.955  0.00  0.00    -0.029 C 
BRANCH   5   6
ATOM      6  CA  LYS d   1      76.971  68.717  88.306  0.00  0.00     0.451 C 
ATOM      7  N   LYS d   1      77.576  67.730  89.149  0.00  0.00     0.642 N 
BRANCH   6   8
ATOM      8  C   LYS d   1      77.042  68.640  86.775  0.00  0.00     0.237 C 
ATOM      9  O   LYS d   1      76.107  69.222  86.149  0.00  0.00    -0.645 OA
ATOM     10  OXT LYS d   1      78.027  68.003  86.297  0.00  0.00    -0.645 OA
ENDBRANCH   6   8
ENDBRANCH   5   6
ENDBRANCH   4   5
ENDBRANCH   1   4
TORSDOF 4
ENDMDL
MODEL 10
REMARK VINA RESULT:      -3.4     13.331     14.313
REMARK  4 active torsions:
REMARK  status: ('A' for Active; 'I' for Inactive)
REMARK    1  A    between atoms: CG_1  and  CD_2 
REMARK    2  A    between atoms: CG_1  and  CB_5 
REMARK    3  A    between atoms: CB_5  and  CA_6 
REMARK    4  A    between atoms: CA_6  and  C_7 
ROOT
ATOM      1  CD  LYS d   1      82.602  77.949  93.291  0.00  0.00     0.012 C 
ATOM      2  CE  LYS d   1      82.409  76.733  92.380  0.00  0.00     0.073 C 
ATOM      3  NZ  LYS d   1      82.225  75.582  91.513  0.00  0.00    -0.086 N 
ENDROOT
BRANCH   1   4
ATOM      4  CG  LYS d   1      82.794  79.165  94.201  0.00  0.00    -0.010 C 
BRANCH   4   5
ATOM      5  CB  LYS d   1      82.986  80.382  95.112  0.00  0.00    -0.029 C 
BRANCH   5   6
ATOM      6  CA  LYS d   1      83.165  81.511  95.955  0.00  0.00     0.451 C 
ATOM      7  N   LYS d   1      82.004  82.306  96.224  0.00  0.00     0.642 N 
BRANCH   6   8
ATOM      8  C   LYS d   1      84.543  81.850  96.540  0.00  0.00     0.237 C 
ATOM      9  O   LYS d   1      84.602  82.904  97.239  0.00  0.00    -0.645 OA
ATOM     10  OXT LYS d   1      85.477  81.040  96.264  0.00  0.00    -0.645 OA
ENDBRANCH   6   8
ENDBRANCH   5   6
ENDBRANCH   4   5
ENDBRANCH   1   4
TORSDOF 4
ENDMDL
MODEL 11
REMARK VINA RESULT:      -3.4      1.849      2.496
REMARK  4 active torsions:
REMARK  status: ('A' for Active; 'I' for Inactive)
REMARK    1  A    between atoms: CG_1  and  CD_2 
REMARK    2  A    between atoms: CG_1  and  CB_5 
REMARK    3  A    between atoms: CB_5  and  CA_6 
REMARK    4  A    between atoms: CA_6  and  C_7 
ROOT
ATOM      1  CD  LYS d   1      77.045  69.065  88.568  0.00  0.00     0.012 C 
ATOM      2  CE  LYS d   1      77.624  67.768  87.993  0.00  0.00     0.073 C 
ATOM      3  NZ  LYS d   1      78.176  66.540  87.448  0.00  0.00    -0.086 N 
ENDROOT
BRANCH   1   4
ATOM      4  CG  LYS d   1      76.467  70.361  89.141  0.00  0.00    -0.010 C 
BRANCH   4   5
ATOM      5  CB  LYS d   1      75.888  71.658  89.715  0.00  0.00    -0.029 C 
BRANCH   5   6
ATOM      6  CA  LYS d   1      75.350  72.860  90.250  0.00  0.00     0.451 C 
ATOM      7  N   LYS d   1      76.158  74.037  90.129  0.00  0.00     0.642 N 
BRANCH   6   8
ATOM      8  C   LYS d   1      73.970  72.879  90.921  0.00  0.00     0.237 C 
ATOM      9  O   LYS d   1      73.567  74.010  91.322  0.00  0.00    -0.645 OA
ATOM     10  OXT LYS d   1      73.379  71.762  91.003  0.00  0.00    -0.645 OA
ENDBRANCH   6   8
ENDBRANCH   5   6
ENDBRANCH   4   5
ENDBRANCH   1   4
TORSDOF 4
ENDMDL
MODEL 12
REMARK VINA RESULT:      -3.3     15.396     16.403
REMARK  4 active torsions:
REMARK  status: ('A' for Active; 'I' for Inactive)
REMARK    1  A    between atoms: CG_1  and  CD_2 
REMARK    2  A    between atoms: CG_1  and  CB_5 
REMARK    3  A    between atoms: CB_5  and  CA_6 
REMARK    4  A    between atoms: CA_6  and  C_7 
ROOT
ATOM      1  CD  LYS d   1      74.913  80.167 101.302  0.00  0.00     0.012 C 
ATOM      2  CE  LYS d   1      73.713  79.850 102.201  0.00  0.00     0.073 C 
ATOM      3  NZ  LYS d   1      72.577  79.550 103.055  0.00  0.00    -0.086 N 
ENDROOT
BRANCH   1   4
ATOM      4  CG  LYS d   1      76.113  80.483 100.405  0.00  0.00    -0.010 C 
BRANCH   4   5
ATOM      5  CB  LYS d   1      77.313  80.799  99.508  0.00  0.00    -0.029 C 
BRANCH   5   6
ATOM      6  CA  LYS d   1      78.425  81.093  98.673  0.00  0.00     0.451 C 
ATOM      7  N   LYS d   1      78.133  81.579  97.358  0.00  0.00     0.642 N 
BRANCH   6   8
ATOM      8  C   LYS d   1      79.863  80.895  99.172  0.00  0.00     0.237 C 
ATOM      9  O   LYS d   1      80.244  79.693  99.295  0.00  0.00    -0.645 OA
ATOM     10  OXT LYS d   1      80.518  81.952  99.409  0.00  0.00    -0.645 OA
ENDBRANCH   6   8
ENDBRANCH   5   6
ENDBRANCH   4   5
ENDBRANCH   1   4
TORSDOF 4
ENDMDL
MODEL 13
REMARK VINA RESULT:      -3.3     22.057     24.048
REMARK  4 active torsions:
REMARK  status: ('A' for Active; 'I' for Inactive)
REMARK    1  A    between atoms: CG_1  and  CD_2 
REMARK    2  A    between atoms: CG_1  and  CB_5 
REMARK    3  A    between atoms: CB_5  and  CA_6 
REMARK    4  A    between atoms: CA_6  and  C_7 
ROOT
ATOM      1  CD  LYS d   1      56.216  72.522  82.835  0.00  0.00     0.012 C 
ATOM      2  CE  LYS d   1      57.330  72.581  83.885  0.00  0.00     0.073 C 
ATOM      3  NZ  LYS d   1      58.384  72.637  84.883  0.00  0.00    -0.086 N 
ENDROOT
BRANCH   1   4
ATOM      4  CG  LYS d   1      55.103  72.463  81.786  0.00  0.00    -0.010 C 
BRANCH   4   5
ATOM      5  CB  LYS d   1      53.988  72.404  80.737  0.00  0.00    -0.029 C 
BRANCH   5   6
ATOM      6  CA  LYS d   1      52.953  72.346  79.765  0.00  0.00     0.451 C 
ATOM      7  N   LYS d   1      52.040  73.450  79.731  0.00  0.00     0.642 N 
BRANCH   6   8
ATOM      8  C   LYS d   1      52.833  71.154  78.807  0.00  0.00     0.237 C 
ATOM      9  O   LYS d   1      52.270  71.391  77.698  0.00  0.00    -0.645 OA
ATOM     10  OXT LYS d   1      53.309  70.057  79.225  0.00  0.00    -0.645 OA
ENDBRANCH   6   8
ENDBRANCH   5   6
ENDBRANCH   4   5
ENDBRANCH   1   4
TORSDOF 4
ENDMDL
MODEL 14
REMARK VINA RESULT:      -3.3      4.218      5.468
REMARK  4 active torsions:
REMARK  status: ('A' for Active; 'I' for Inactive)
REMARK    1  A    between atoms: CG_1  and  CD_2 
REMARK    2  A    between atoms: CG_1  and  CB_5 
REMARK    3  A    between atoms: CB_5  and  CA_6 
REMARK    4  A    between atoms: CA_6  and  C_7 
ROOT
ATOM      1  CD  LYS d   1      76.484  69.424  91.876  0.00  0.00     0.012 C 
ATOM      2  CE  LYS d   1      76.303  69.765  93.358  0.00  0.00     0.073 C 
ATOM      3  NZ  LYS d   1      76.133  70.086  94.765  0.00  0.00    -0.086 N 
ENDROOT
BRANCH   1   4
ATOM      4  CG  LYS d   1      76.666  69.083  90.394  0.00  0.00    -0.010 C 
BRANCH   4   5
ATOM      5  CB  LYS d   1      76.848  68.742  88.912  0.00  0.00    -0.029 C 
BRANCH   5   6
ATOM      6  CA  LYS d   1      77.014  68.426  87.537  0.00  0.00     0.451 C 
ATOM      7  N   LYS d   1      76.164  69.112  86.611  0.00  0.00     0.642 N 
BRANCH   6   8
ATOM      8  C   LYS d   1      78.058  67.397  87.082  0.00  0.00     0.237 C 
ATOM      9  O   LYS d   1      78.541  67.574  85.925  0.00  0.00    -0.645 OA
ATOM     10  OXT LYS d   1      78.327  66.478  87.911  0.00  0.00    -0.645 OA
ENDBRANCH   6   8
ENDBRANCH   5   6
ENDBRANCH   4   5
ENDBRANCH   1   4
TORSDOF 4
ENDMDL
MODEL 15
REMARK VINA RESULT:      -3.2     20.293     22.180
REMARK  4 active torsions:
REMARK  status: ('A' for Active; 'I' for Inactive)
REMARK    1  A    between atoms: CG_1  and  CD_2 
REMARK    2  A    between atoms: CG_1  and  CB_5 
REMARK    3  A    between atoms: CB_5  and  CA_6 
REMARK    4  A    between atoms: CA_6  and  C_7 
ROOT
ATOM      1  CD  LYS d   1      57.813  72.414  81.973  0.00  0.00     0.012 C 
ATOM      2  CE  LYS d   1      58.113  72.597  83.463  0.00  0.00     0.073 C 
ATOM      3  NZ  LYS d   1      58.395  72.771  84.878  0.00  0.00    -0.086 N 
ENDROOT
BRANCH   1   4
ATOM      4  CG  LYS d   1      57.512  72.230  80.483  0.00  0.00    -0.010 C 
BRANCH   4   5
ATOM      5  CB  LYS d   1      57.212  72.046  78.992  0.00  0.00    -0.029 C 
BRANCH   5   6
ATOM      6  CA  LYS d   1      56.935  71.876  77.609  0.00  0.00     0.451 C 
ATOM      7  N   LYS d   1      56.554  73.048  76.879  0.00  0.00     0.642 N 
BRANCH   6   8
ATOM      8  C   LYS d   1      57.045  70.497  76.944  0.00  0.00     0.237 C 
ATOM      9  O   LYS d   1      56.221  70.266  76.011  0.00  0.00    -0.645 OA
ATOM     10  OXT LYS d   1      57.947  69.733  77.399  0.00  0.00    -0.645 OA
ENDBRANCH   6   8
ENDBRANCH   5   6
ENDBRANCH   4   5
ENDBRANCH   1   4
TORSDOF 4
ENDMDL
MODEL 16
REMARK VINA RESULT:      -3.2      1.798      1.798
REMARK  4 active torsions:
REMARK  status: ('A' for Active; 'I' for Inactive)
REMARK    1  A    between atoms: CG_1  and  CD_2 
REMARK    2  A    between atoms: CG_1  and  CB_5 
REMARK    3  A    between atoms: CB_5  and  CA_6 
REMARK    4  A    between atoms: CA_6  and  C_7 
ROOT
ATOM      1  CD  LYS d   1      78.301  67.013  91.467  0.00  0.00     0.012 C 
ATOM      2  CE  LYS d   1      79.219  65.946  92.071  0.00  0.00     0.073 C 
ATOM      3  NZ  LYS d   1      80.088  64.931  92.642  0.00  0.00    -0.086 N 
ENDROOT
BRANCH   1   4
ATOM      4  CG  LYS d   1      77.383  68.079  90.864  0.00  0.00    -0.010 C 
BRANCH   4   5
ATOM      5  CB  LYS d   1      76.464  69.146  90.260  0.00  0.00    -0.029 C 
BRANCH   5   6
ATOM      6  CA  LYS d   1      75.613  70.135  89.697  0.00  0.00     0.451 C 
ATOM      7  N   LYS d   1      76.110  70.838  88.552  0.00  0.00     0.642 N 
BRANCH   6   8
ATOM      8  C   LYS d   1      74.230  70.423  90.297  0.00  0.00     0.237 C 
ATOM      9  O   LYS d   1      73.250  69.867  89.720  0.00  0.00    -0.645 OA
ATOM     10  OXT LYS d   1      74.214  71.187  91.308  0.00  0.00    -0.645 OA
ENDBRANCH   6   8
ENDBRANCH   5   6
ENDBRANCH   4   5
ENDBRANCH   1   4
TORSDOF 4
ENDMDL
MODEL 17
REMARK VINA RESULT:      -3.1      3.811      6.713
REMARK  4 active torsions:
REMARK  status: ('A' for Active; 'I' for Inactive)
REMARK    1  A    between atoms: CG_1  and  CD_2 
REMARK    2  A    between atoms: CG_1  and  CB_5 
REMARK    3  A    between atoms: CB_5  and  CA_6 
REMARK    4  A    between atoms: CA_6  and  C_7 
ROOT
ATOM      1  CD  LYS d   1      75.595  74.136  90.006  0.00  0.00     0.012 C 
ATOM      2  CE  LYS d   1      75.212  75.513  90.559  0.00  0.00     0.073 C 
ATOM      3  NZ  LYS d   1      74.847  76.819  91.080  0.00  0.00    -0.086 N 
ENDROOT
BRANCH   1   4
ATOM      4  CG  LYS d   1      75.977  72.761  89.453  0.00  0.00    -0.010 C 
BRANCH   4   5
ATOM      5  CB  LYS d   1      76.358  71.384  88.900  0.00  0.00    -0.029 C 
BRANCH   5   6
ATOM      6  CA  LYS d   1      76.710  70.107  88.386  0.00  0.00     0.451 C 
ATOM      7  N   LYS d   1      75.663  69.351  87.766  0.00  0.00     0.642 N 
BRANCH   6   8
ATOM      8  C   LYS d   1      78.146  69.578  88.498  0.00  0.00     0.237 C 
ATOM      9  O   LYS d   1      78.298  68.341  88.272  0.00  0.00    -0.645 OA
ATOM     10  OXT LYS d   1      79.029  70.433  88.804  0.00  0.00    -0.645 OA
ENDBRANCH   6   8
ENDBRANCH   5   6
ENDBRANCH   4   5
ENDBRANCH   1   4
TORSDOF 4
ENDMDL
MODEL 18
REMARK VINA RESULT:      -3.0      4.482      5.287
REMARK  4 active torsions:
REMARK  status: ('A' for Active; 'I' for Inactive)
REMARK    1  A    between atoms: CG_1  and  CD_2 
REMARK    2  A    between atoms: CG_1  and  CB_5 
REMARK    3  A    between atoms: CB_5  and  CA_6 
REMARK    4  A    between atoms: CA_6  and  C_7 
ROOT
ATOM      1  CD  LYS d   1      77.633  67.154  92.726  0.00  0.00     0.012 C 
ATOM      2  CE  LYS d   1      77.594  66.852  94.227  0.00  0.00     0.073 C 
ATOM      3  NZ  LYS d   1      77.554  66.566  95.651  0.00  0.00    -0.086 N 
ENDROOT
BRANCH   1   4
ATOM      4  CG  LYS d   1      77.671  67.456  91.225  0.00  0.00    -0.010 C 
BRANCH   4   5
ATOM      5  CB  LYS d   1      77.709  67.758  89.724  0.00  0.00    -0.029 C 
BRANCH   5   6
ATOM      6  CA  LYS d   1      77.742  68.038  88.331  0.00  0.00     0.451 C 
ATOM      7  N   LYS d   1      77.209  69.301  87.916  0.00  0.00     0.642 N 
BRANCH   6   8
ATOM      8  C   LYS d   1      78.323  67.027  87.334  0.00  0.00     0.237 C 
ATOM      9  O   LYS d   1      78.715  65.928  87.827  0.00  0.00    -0.645 OA
ATOM     10  OXT LYS d   1      78.350  67.397  86.123  0.00  0.00    -0.645 OA
ENDBRANCH   6   8
ENDBRANCH   5   6
ENDBRANCH   4   5
ENDBRANCH   1   4
TORSDOF 4
ENDMDL
MODEL 19
REMARK VINA RESULT:      -3.0     15.326     16.817
REMARK  4 active torsions:
REMARK  status: ('A' for Active; 'I' for Inactive)
REMARK    1  A    between atoms: CG_1  and  CD_2 
REMARK    2  A    between atoms: CG_1  and  CB_5 
REMARK    3  A    between atoms: CB_5  and  CA_6 
REMARK    4  A    between atoms: CA_6  and  C_7 
ROOT
ATOM      1  CD  LYS d   1      83.255  62.017  78.701  0.00  0.00     0.012 C 
ATOM      2  CE  LYS d   1      84.039  62.204  80.004  0.00  0.00     0.073 C 
ATOM      3  NZ  LYS d   1      84.784  62.381  81.238  0.00  0.00    -0.086 N 
ENDROOT
BRANCH   1   4
ATOM      4  CG  LYS d   1      82.473  61.830  77.398  0.00  0.00    -0.010 C 
BRANCH   4   5
ATOM      5  CB  LYS d   1      81.691  61.643  76.095  0.00  0.00    -0.029 C 
BRANCH   5   6
ATOM      6  CA  LYS d   1      80.964  61.467  74.886  0.00  0.00     0.451 C 
ATOM      7  N   LYS d   1      79.817  60.611  74.943  0.00  0.00     0.642 N 
BRANCH   6   8
ATOM      8  C   LYS d   1      81.399  62.168  73.593  0.00  0.00     0.237 C 
ATOM      9  O   LYS d   1      80.624  62.028  72.601  0.00  0.00    -0.645 OA
ATOM     10  OXT LYS d   1      82.487  62.814  73.651  0.00  0.00    -0.645 OA
ENDBRANCH   6   8
ENDBRANCH   5   6
ENDBRANCH   4   5
ENDBRANCH   1   4
TORSDOF 4
ENDMDL
MODEL 20
REMARK VINA RESULT:      -3.0     15.482     16.709
REMARK  4 active torsions:
REMARK  status: ('A' for Active; 'I' for Inactive)
REMARK    1  A    between atoms: CG_1  and  CD_2 
REMARK    2  A    between atoms: CG_1  and  CB_5 
REMARK    3  A    between atoms: CB_5  and  CA_6 
REMARK    4  A    between atoms: CA_6  and  C_7 
ROOT
ATOM      1  CD  LYS d   1      74.536  82.701  98.141  0.00  0.00     0.012 C 
ATOM      2  CE  LYS d   1      73.060  82.941  98.473  0.00  0.00     0.073 C 
ATOM      3  NZ  LYS d   1      71.660  83.167  98.790  0.00  0.00    -0.086 N 
ENDROOT
BRANCH   1   4
ATOM      4  CG  LYS d   1      76.012  82.461  97.811  0.00  0.00    -0.010 C 
BRANCH   4   5
ATOM      5  CB  LYS d   1      77.488  82.221  97.480  0.00  0.00    -0.029 C 
BRANCH   5   6
ATOM      6  CA  LYS d   1      78.858  81.999  97.175  0.00  0.00     0.451 C 
ATOM      7  N   LYS d   1      79.149  81.419  95.899  0.00  0.00     0.642 N 
BRANCH   6   8
ATOM      8  C   LYS d   1      79.960  82.369  98.177  0.00  0.00     0.237 C 
ATOM      9  O   LYS d   1      79.810  81.926  99.353  0.00  0.00    -0.645 OA
ATOM     10  OXT LYS d   1      80.906  83.079  97.722  0.00  0.00    -0.645 OA
ENDBRANCH   6   8
ENDBRANCH   5   6
ENDBRANCH   4   5
ENDBRANCH   1   4
TORSDOF 4
ENDMDL
