MODEL 1
REMARK VINA RESULT:      -1.1      0.000      0.000
REMARK  4 active torsions:
REMARK  status: ('A' for Active; 'I' for Inactive)
REMARK    1  A    between atoms: C_1  and  C_9 
REMARK    2  A    between atoms: C_3  and  C_1 
REMARK    3  A    between atoms: C_11  and  C_23 
REMARK    4  A    between atoms: C_18  and  C_19 
ROOT
ATOM      1 CL   UNL d   2      67.206  88.740  77.744  0.00  0.00     0.000 Cl
ENDROOT
TORSDOF 4
ENDMDL
MODEL 2
REMARK VINA RESULT:      -1.1     16.649     16.649
REMARK  4 active torsions:
REMARK  status: ('A' for Active; 'I' for Inactive)
REMARK    1  A    between atoms: C_1  and  C_9 
REMARK    2  A    between atoms: C_3  and  C_1 
REMARK    3  A    between atoms: C_11  and  C_23 
REMARK    4  A    between atoms: C_18  and  C_19 
ROOT
ATOM      1 CL   UNL d   2      79.243  78.208  82.364  0.00  0.00     0.000 Cl
ENDROOT
TORSDOF 4
ENDMDL
MODEL 3
REMARK VINA RESULT:      -1.0     19.828     19.828
REMARK  4 active torsions:
REMARK  status: ('A' for Active; 'I' for Inactive)
REMARK    1  A    between atoms: C_1  and  C_9 
REMARK    2  A    between atoms: C_3  and  C_1 
REMARK    3  A    between atoms: C_11  and  C_23 
REMARK    4  A    between atoms: C_18  and  C_19 
ROOT
ATOM      1 CL   UNL d   2      82.956  76.714  78.430  0.00  0.00     0.000 Cl
ENDROOT
TORSDOF 4
ENDMDL
MODEL 4
REMARK VINA RESULT:      -1.0     32.958     32.958
REMARK  4 active torsions:
REMARK  status: ('A' for Active; 'I' for Inactive)
REMARK    1  A    between atoms: C_1  and  C_9 
REMARK    2  A    between atoms: C_3  and  C_1 
REMARK    3  A    between atoms: C_11  and  C_23 
REMARK    4  A    between atoms: C_18  and  C_19 
ROOT
ATOM      1 CL   UNL d   2      80.069  80.293 106.888  0.00  0.00     0.000 Cl
ENDROOT
TORSDOF 4
ENDMDL
MODEL 5
REMARK VINA RESULT:      -0.9     29.531     29.531
REMARK  4 active torsions:
REMARK  status: ('A' for Active; 'I' for Inactive)
REMARK    1  A    between atoms: C_1  and  C_9 
REMARK    2  A    between atoms: C_3  and  C_1 
REMARK    3  A    between atoms: C_11  and  C_23 
REMARK    4  A    between atoms: C_18  and  C_19 
ROOT
ATOM      1 CL   UNL d   2      56.592  63.060  87.740  0.00  0.00     0.000 Cl
ENDROOT
TORSDOF 4
ENDMDL
MODEL 6
REMARK VINA RESULT:      -0.9     38.735     38.735
REMARK  4 active torsions:
REMARK  status: ('A' for Active; 'I' for Inactive)
REMARK    1  A    between atoms: C_1  and  C_9 
REMARK    2  A    between atoms: C_3  and  C_1 
REMARK    3  A    between atoms: C_11  and  C_23 
REMARK    4  A    between atoms: C_18  and  C_19 
ROOT
ATOM      1 CL   UNL d   2      73.499  58.604 101.251  0.00  0.00     0.000 Cl
ENDROOT
TORSDOF 4
ENDMDL
MODEL 7
REMARK VINA RESULT:      -0.9     19.389     19.389
REMARK  4 active torsions:
REMARK  status: ('A' for Active; 'I' for Inactive)
REMARK    1  A    between atoms: C_1  and  C_9 
REMARK    2  A    between atoms: C_3  and  C_1 
REMARK    3  A    between atoms: C_11  and  C_23 
REMARK    4  A    between atoms: C_18  and  C_19 
ROOT
ATOM      1 CL   UNL d   2      57.094  74.249  85.723  0.00  0.00     0.000 Cl
ENDROOT
TORSDOF 4
ENDMDL
MODEL 8
REMARK VINA RESULT:      -0.9     26.712     26.712
REMARK  4 active torsions:
REMARK  status: ('A' for Active; 'I' for Inactive)
REMARK    1  A    between atoms: C_1  and  C_9 
REMARK    2  A    between atoms: C_3  and  C_1 
REMARK    3  A    between atoms: C_11  and  C_23 
REMARK    4  A    between atoms: C_18  and  C_19 
ROOT
ATOM      1 CL   UNL d   2      86.260  81.050  94.812  0.00  0.00     0.000 Cl
ENDROOT
TORSDOF 4
ENDMDL
MODEL 9
REMARK VINA RESULT:      -0.8     32.044     32.044
REMARK  4 active torsions:
REMARK  status: ('A' for Active; 'I' for Inactive)
REMARK    1  A    between atoms: C_1  and  C_9 
REMARK    2  A    between atoms: C_3  and  C_1 
REMARK    3  A    between atoms: C_11  and  C_23 
REMARK    4  A    between atoms: C_18  and  C_19 
ROOT
ATOM      1 CL   UNL d   2      68.307  68.389 102.471  0.00  0.00     0.000 Cl
ENDROOT
TORSDOF 4
ENDMDL
MODEL 10
REMARK VINA RESULT:      -0.8     25.212     25.212
REMARK  4 active torsions:
REMARK  status: ('A' for Active; 'I' for Inactive)
REMARK    1  A    between atoms: C_1  and  C_9 
REMARK    2  A    between atoms: C_3  and  C_1 
REMARK    3  A    between atoms: C_11  and  C_23 
REMARK    4  A    between atoms: C_18  and  C_19 
ROOT
ATOM      1 CL   UNL d   2      78.276  67.757  86.276  0.00  0.00     0.000 Cl
ENDROOT
TORSDOF 4
ENDMDL
MODEL 11
REMARK VINA RESULT:      -0.8     31.724     31.724
REMARK  4 active torsions:
REMARK  status: ('A' for Active; 'I' for Inactive)
REMARK    1  A    between atoms: C_1  and  C_9 
REMARK    2  A    between atoms: C_3  and  C_1 
REMARK    3  A    between atoms: C_11  and  C_23 
REMARK    4  A    between atoms: C_18  and  C_19 
ROOT
ATOM      1 CL   UNL d   2      70.945  75.550 106.351  0.00  0.00     0.000 Cl
ENDROOT
TORSDOF 4
ENDMDL
MODEL 12
REMARK VINA RESULT:      -0.8     33.216     33.216
REMARK  4 active torsions:
REMARK  status: ('A' for Active; 'I' for Inactive)
REMARK    1  A    between atoms: C_1  and  C_9 
REMARK    2  A    between atoms: C_3  and  C_1 
REMARK    3  A    between atoms: C_11  and  C_23 
REMARK    4  A    between atoms: C_18  and  C_19 
ROOT
ATOM      1 CL   UNL d   2      52.804  60.501  87.663  0.00  0.00     0.000 Cl
ENDROOT
TORSDOF 4
ENDMDL
MODEL 13
REMARK VINA RESULT:      -0.8     30.021     30.021
REMARK  4 active torsions:
REMARK  status: ('A' for Active; 'I' for Inactive)
REMARK    1  A    between atoms: C_1  and  C_9 
REMARK    2  A    between atoms: C_3  and  C_1 
REMARK    3  A    between atoms: C_11  and  C_23 
REMARK    4  A    between atoms: C_18  and  C_19 
ROOT
ATOM      1 CL   UNL d   2      54.569  62.874  86.257  0.00  0.00     0.000 Cl
ENDROOT
TORSDOF 4
ENDMDL
MODEL 14
REMARK VINA RESULT:      -0.8     29.510     29.510
REMARK  4 active torsions:
REMARK  status: ('A' for Active; 'I' for Inactive)
REMARK    1  A    between atoms: C_1  and  C_9 
REMARK    2  A    between atoms: C_3  and  C_1 
REMARK    3  A    between atoms: C_11  and  C_23 
REMARK    4  A    between atoms: C_18  and  C_19 
ROOT
ATOM      1 CL   UNL d   2      56.685  70.845  98.717  0.00  0.00     0.000 Cl
ENDROOT
TORSDOF 4
ENDMDL
MODEL 15
REMARK VINA RESULT:      -0.8     19.600     19.600
REMARK  4 active torsions:
REMARK  status: ('A' for Active; 'I' for Inactive)
REMARK    1  A    between atoms: C_1  and  C_9 
REMARK    2  A    between atoms: C_3  and  C_1 
REMARK    3  A    between atoms: C_11  and  C_23 
REMARK    4  A    between atoms: C_18  and  C_19 
ROOT
ATOM      1 CL   UNL d   2      58.225  72.754  84.666  0.00  0.00     0.000 Cl
ENDROOT
TORSDOF 4
ENDMDL
MODEL 16
REMARK VINA RESULT:      -0.8     16.922     16.922
REMARK  4 active torsions:
REMARK  status: ('A' for Active; 'I' for Inactive)
REMARK    1  A    between atoms: C_1  and  C_9 
REMARK    2  A    between atoms: C_3  and  C_1 
REMARK    3  A    between atoms: C_11  and  C_23 
REMARK    4  A    between atoms: C_18  and  C_19 
ROOT
ATOM      1 CL   UNL d   2      65.377  74.928  87.346  0.00  0.00     0.000 Cl
ENDROOT
TORSDOF 4
ENDMDL
MODEL 17
REMARK VINA RESULT:      -0.7     28.949     28.949
REMARK  4 active torsions:
REMARK  status: ('A' for Active; 'I' for Inactive)
REMARK    1  A    between atoms: C_1  and  C_9 
REMARK    2  A    between atoms: C_3  and  C_1 
REMARK    3  A    between atoms: C_11  and  C_23 
REMARK    4  A    between atoms: C_18  and  C_19 
ROOT
ATOM      1 CL   UNL d   2      60.563  69.346  98.182  0.00  0.00     0.000 Cl
ENDROOT
TORSDOF 4
ENDMDL
MODEL 18
REMARK VINA RESULT:      -0.7     21.350     21.350
REMARK  4 active torsions:
REMARK  status: ('A' for Active; 'I' for Inactive)
REMARK    1  A    between atoms: C_1  and  C_9 
REMARK    2  A    between atoms: C_3  and  C_1 
REMARK    3  A    between atoms: C_11  and  C_23 
REMARK    4  A    between atoms: C_18  and  C_19 
ROOT
ATOM      1 CL   UNL d   2      63.925  72.078  90.683  0.00  0.00     0.000 Cl
ENDROOT
TORSDOF 4
ENDMDL
MODEL 19
REMARK VINA RESULT:      -0.7     23.189     23.189
REMARK  4 active torsions:
REMARK  status: ('A' for Active; 'I' for Inactive)
REMARK    1  A    between atoms: C_1  and  C_9 
REMARK    2  A    between atoms: C_3  and  C_1 
REMARK    3  A    between atoms: C_11  and  C_23 
REMARK    4  A    between atoms: C_18  and  C_19 
ROOT
ATOM      1 CL   UNL d   2      75.724  69.128  86.717  0.00  0.00     0.000 Cl
ENDROOT
TORSDOF 4
ENDMDL
MODEL 20
REMARK VINA RESULT:      -0.7     20.700     20.700
REMARK  4 active torsions:
REMARK  status: ('A' for Active; 'I' for Inactive)
REMARK    1  A    between atoms: C_1  and  C_9 
REMARK    2  A    between atoms: C_3  and  C_1 
REMARK    3  A    between atoms: C_11  and  C_23 
REMARK    4  A    between atoms: C_18  and  C_19 
ROOT
ATOM      1 CL   UNL d   2      55.848  72.128  82.591  0.00  0.00     0.000 Cl
ENDROOT
TORSDOF 4
ENDMDL
