MODEL 1
REMARK VINA RESULT:      -4.8      0.000      0.000
REMARK  5 active torsions:
REMARK  status: ('A' for Active; 'I' for Inactive)
REMARK    1  A    between atoms: N_1  and  C_2 
REMARK    2  A    between atoms: C_2  and  C_3 
REMARK    3  A    between atoms: C_3  and  C_5 
REMARK    4  A    between atoms: C_5  and  C_7 
REMARK    5  A    between atoms: C_7  and  C_9 
ROOT
ATOM      1  C   UNL d   1      64.016  90.734  91.818  0.00  0.00     0.297 C 
ATOM      2  O   UNL d   1      63.606  91.518  90.901  0.00  0.00    -0.272 OA
ATOM      3  C   UNL d   1      64.327  89.364  91.290  0.00  0.00     0.102 C 
ATOM      4  O   UNL d   1      64.584  88.116  90.669  0.00  0.00    -0.134 OA
ENDROOT
BRANCH   1   5
ATOM      5  C   UNL d   1      64.159  91.236  93.358  0.00  0.00     0.286 C 
ATOM      6  O   UNL d   1      65.198  91.971  93.509  0.00  0.00    -0.279 OA
BRANCH   5   7
ATOM      7  C   UNL d   1      63.272  91.016  94.763  0.00  0.00     0.285 C 
ATOM      8  O   UNL d   1      63.767  91.584  95.798  0.00  0.00    -0.279 OA
BRANCH   7   9
ATOM      9  C   UNL d   1      61.910  90.240  95.133  0.00  0.00     0.289 C 
ATOM     10  O   UNL d   1      61.442  90.233  96.318  0.00  0.00    -0.273 OA
BRANCH   9  11
ATOM     11  C   UNL d   1      61.029  89.456  94.224  0.00  0.00     0.038 C 
BRANCH  11  12
ATOM     12  N   UNL d   1      59.995  89.134  93.206  0.00  0.00    -0.224 NA
ATOM     13  C   UNL d   1      58.613  88.843  93.628  0.00  0.00     0.163 C 
ENDBRANCH  11  12
ENDBRANCH   9  11
ENDBRANCH   7   9
ENDBRANCH   5   7
ENDBRANCH   1   5
TORSDOF 5
ENDMDL
MODEL 2
REMARK VINA RESULT:      -4.7     21.706     23.886
REMARK  5 active torsions:
REMARK  status: ('A' for Active; 'I' for Inactive)
REMARK    1  A    between atoms: N_1  and  C_2 
REMARK    2  A    between atoms: C_2  and  C_3 
REMARK    3  A    between atoms: C_3  and  C_5 
REMARK    4  A    between atoms: C_5  and  C_7 
REMARK    5  A    between atoms: C_7  and  C_9 
ROOT
ATOM      1  C   UNL d   1      76.229  69.059  87.330  0.00  0.00     0.297 C 
ATOM      2  O   UNL d   1      75.416  69.411  86.414  0.00  0.00    -0.272 OA
ATOM      3  C   UNL d   1      77.381  68.266  86.787  0.00  0.00     0.102 C 
ATOM      4  O   UNL d   1      78.414  67.533  86.151  0.00  0.00    -0.134 OA
ENDROOT
BRANCH   1   5
ATOM      5  C   UNL d   1      75.974  69.461  88.886  0.00  0.00     0.286 C 
ATOM      6  O   UNL d   1      76.786  68.843  89.661  0.00  0.00    -0.279 OA
BRANCH   5   7
ATOM      7  C   UNL d   1      74.912  70.480  89.687  0.00  0.00     0.285 C 
ATOM      8  O   UNL d   1      73.788  69.946  89.986  0.00  0.00    -0.279 OA
BRANCH   7   9
ATOM      9  C   UNL d   1      74.967  72.011  90.183  0.00  0.00     0.289 C 
ATOM     10  O   UNL d   1      75.944  72.776  89.893  0.00  0.00    -0.273 OA
BRANCH   9  11
ATOM     11  C   UNL d   1      73.963  72.742  91.005  0.00  0.00     0.038 C 
BRANCH  11  12
ATOM     12  N   UNL d   1      72.676  73.099  91.656  0.00  0.00    -0.224 NA
ATOM     13  C   UNL d   1      72.037  74.394  91.359  0.00  0.00     0.163 C 
ENDBRANCH  11  12
ENDBRANCH   9  11
ENDBRANCH   7   9
ENDBRANCH   5   7
ENDBRANCH   1   5
TORSDOF 5
ENDMDL
MODEL 3
REMARK VINA RESULT:      -4.7      2.842      4.604
REMARK  5 active torsions:
REMARK  status: ('A' for Active; 'I' for Inactive)
REMARK    1  A    between atoms: N_1  and  C_2 
REMARK    2  A    between atoms: C_2  and  C_3 
REMARK    3  A    between atoms: C_3  and  C_5 
REMARK    4  A    between atoms: C_5  and  C_7 
REMARK    5  A    between atoms: C_7  and  C_9 
ROOT
ATOM      1  C   UNL d   1      61.483  90.240  95.034  0.00  0.00     0.297 C 
ATOM      2  O   UNL d   1      61.428  90.148  96.304  0.00  0.00    -0.272 OA
ATOM      3  C   UNL d   1      60.354  89.512  94.367  0.00  0.00     0.102 C 
ATOM      4  O   UNL d   1      59.244  88.789  93.861  0.00  0.00    -0.134 OA
ENDROOT
BRANCH   1   5
ATOM      5  C   UNL d   1      62.673  91.071  94.298  0.00  0.00     0.286 C 
ATOM      6  O   UNL d   1      62.211  91.784  93.338  0.00  0.00    -0.279 OA
BRANCH   5   7
ATOM      7  C   UNL d   1      64.330  91.203  94.508  0.00  0.00     0.285 C 
ATOM      8  O   UNL d   1      64.933  91.843  93.577  0.00  0.00    -0.279 OA
BRANCH   7   9
ATOM      9  C   UNL d   1      65.373  90.706  95.629  0.00  0.00     0.289 C 
ATOM     10  O   UNL d   1      66.272  91.477  96.099  0.00  0.00    -0.273 OA
BRANCH   9  11
ATOM     11  C   UNL d   1      65.461  89.361  96.264  0.00  0.00     0.038 C 
BRANCH  11  12
ATOM     12  N   UNL d   1      65.054  88.073  96.880  0.00  0.00    -0.224 NA
ATOM     13  C   UNL d   1      63.845  87.378  96.403  0.00  0.00     0.163 C 
ENDBRANCH  11  12
ENDBRANCH   9  11
ENDBRANCH   7   9
ENDBRANCH   5   7
ENDBRANCH   1   5
TORSDOF 5
ENDMDL
MODEL 4
REMARK VINA RESULT:      -4.7     23.313     25.547
REMARK  5 active torsions:
REMARK  status: ('A' for Active; 'I' for Inactive)
REMARK    1  A    between atoms: N_1  and  C_2 
REMARK    2  A    between atoms: C_2  and  C_3 
REMARK    3  A    between atoms: C_3  and  C_5 
REMARK    4  A    between atoms: C_5  and  C_7 
REMARK    5  A    between atoms: C_7  and  C_9 
ROOT
ATOM      1  C   UNL d   1      77.603  67.716  87.014  0.00  0.00     0.297 C 
ATOM      2  O   UNL d   1      78.429  67.581  86.053  0.00  0.00    -0.272 OA
ATOM      3  C   UNL d   1      77.633  66.546  87.952  0.00  0.00     0.102 C 
ATOM      4  O   UNL d   1      77.758  65.387  88.759  0.00  0.00    -0.134 OA
ENDROOT
BRANCH   1   5
ATOM      5  C   UNL d   1      76.659  69.035  87.137  0.00  0.00     0.286 C 
ATOM      6  O   UNL d   1      76.107  69.313  86.014  0.00  0.00    -0.279 OA
BRANCH   5   7
ATOM      7  C   UNL d   1      76.255  70.091  88.373  0.00  0.00     0.285 C 
ATOM      8  O   UNL d   1      76.316  71.330  88.055  0.00  0.00    -0.279 OA
BRANCH   7   9
ATOM      9  C   UNL d   1      75.795  69.918  89.906  0.00  0.00     0.289 C 
ATOM     10  O   UNL d   1      76.308  69.033  90.665  0.00  0.00    -0.273 OA
BRANCH   9  11
ATOM     11  C   UNL d   1      74.768  70.703  90.647  0.00  0.00     0.038 C 
BRANCH  11  12
ATOM     12  N   UNL d   1      73.677  71.671  90.928  0.00  0.00    -0.224 NA
ATOM     13  C   UNL d   1      73.981  73.109  91.041  0.00  0.00     0.163 C 
ENDBRANCH  11  12
ENDBRANCH   9  11
ENDBRANCH   7   9
ENDBRANCH   5   7
ENDBRANCH   1   5
TORSDOF 5
ENDMDL
MODEL 5
REMARK VINA RESULT:      -4.7      1.870      4.380
REMARK  5 active torsions:
REMARK  status: ('A' for Active; 'I' for Inactive)
REMARK    1  A    between atoms: N_1  and  C_2 
REMARK    2  A    between atoms: C_2  and  C_3 
REMARK    3  A    between atoms: C_3  and  C_5 
REMARK    4  A    between atoms: C_5  and  C_7 
REMARK    5  A    between atoms: C_7  and  C_9 
ROOT
ATOM      1  C   UNL d   1      61.832  90.286  95.068  0.00  0.00     0.297 C 
ATOM      2  O   UNL d   1      61.419  90.150  96.266  0.00  0.00    -0.272 OA
ATOM      3  C   UNL d   1      60.876  89.698  94.073  0.00  0.00     0.102 C 
ATOM      4  O   UNL d   1      59.895  89.108  93.237  0.00  0.00    -0.134 OA
ENDROOT
BRANCH   1   5
ATOM      5  C   UNL d   1      63.244  91.024  94.741  0.00  0.00     0.286 C 
ATOM      6  O   UNL d   1      63.756  91.530  95.802  0.00  0.00    -0.279 OA
BRANCH   5   7
ATOM      7  C   UNL d   1      64.161  91.267  93.360  0.00  0.00     0.285 C 
ATOM      8  O   UNL d   1      65.202  91.992  93.535  0.00  0.00    -0.279 OA
BRANCH   7   9
ATOM      9  C   UNL d   1      64.045  90.796  91.825  0.00  0.00     0.289 C 
ATOM     10  O   UNL d   1      63.604  91.572  90.916  0.00  0.00    -0.273 OA
BRANCH   9  11
ATOM     11  C   UNL d   1      64.405  89.472  91.246  0.00  0.00     0.038 C 
BRANCH  11  12
ATOM     12  N   UNL d   1      64.514  88.000  91.072  0.00  0.00    -0.224 NA
ATOM     13  C   UNL d   1      63.473  87.115  91.624  0.00  0.00     0.163 C 
ENDBRANCH  11  12
ENDBRANCH   9  11
ENDBRANCH   7   9
ENDBRANCH   5   7
ENDBRANCH   1   5
TORSDOF 5
ENDMDL
MODEL 6
REMARK VINA RESULT:      -4.7      2.019      4.311
REMARK  5 active torsions:
REMARK  status: ('A' for Active; 'I' for Inactive)
REMARK    1  A    between atoms: N_1  and  C_2 
REMARK    2  A    between atoms: C_2  and  C_3 
REMARK    3  A    between atoms: C_3  and  C_5 
REMARK    4  A    between atoms: C_5  and  C_7 
REMARK    5  A    between atoms: C_7  and  C_9 
ROOT
ATOM      1  C   UNL d   1      62.662  91.172  94.111  0.00  0.00     0.297 C 
ATOM      2  O   UNL d   1      61.938  92.107  93.636  0.00  0.00    -0.272 OA
ATOM      3  C   UNL d   1      62.001  90.478  95.265  0.00  0.00     0.102 C 
ATOM      4  O   UNL d   1      61.271  89.906  96.338  0.00  0.00    -0.134 OA
ENDROOT
BRANCH   1   5
ATOM      5  C   UNL d   1      64.124  90.834  93.482  0.00  0.00     0.286 C 
ATOM      6  O   UNL d   1      64.931  91.818  93.637  0.00  0.00    -0.279 OA
BRANCH   5   7
ATOM      7  C   UNL d   1      64.799  89.518  92.694  0.00  0.00     0.285 C 
ATOM      8  O   UNL d   1      65.962  89.187  93.115  0.00  0.00    -0.279 OA
BRANCH   7   9
ATOM      9  C   UNL d   1      64.324  88.545  91.503  0.00  0.00     0.289 C 
ATOM     10  O   UNL d   1      65.004  87.524  91.159  0.00  0.00    -0.273 OA
BRANCH   9  11
ATOM     11  C   UNL d   1      63.100  88.661  90.661  0.00  0.00     0.038 C 
BRANCH  11  12
ATOM     12  N   UNL d   1      61.684  88.560  90.225  0.00  0.00    -0.224 NA
ATOM     13  C   UNL d   1      61.341  87.800  89.009  0.00  0.00     0.163 C 
ENDBRANCH  11  12
ENDBRANCH   9  11
ENDBRANCH   7   9
ENDBRANCH   5   7
ENDBRANCH   1   5
TORSDOF 5
ENDMDL
MODEL 7
REMARK VINA RESULT:      -4.7      2.232      3.241
REMARK  5 active torsions:
REMARK  status: ('A' for Active; 'I' for Inactive)
REMARK    1  A    between atoms: N_1  and  C_2 
REMARK    2  A    between atoms: C_2  and  C_3 
REMARK    3  A    between atoms: C_3  and  C_5 
REMARK    4  A    between atoms: C_5  and  C_7 
REMARK    5  A    between atoms: C_7  and  C_9 
ROOT
ATOM      1  C   UNL d   1      65.355  90.735  95.708  0.00  0.00     0.297 C 
ATOM      2  O   UNL d   1      66.325  91.485  96.058  0.00  0.00    -0.272 OA
ATOM      3  C   UNL d   1      65.342  89.441  96.466  0.00  0.00     0.102 C 
ATOM      4  O   UNL d   1      65.440  88.262  97.248  0.00  0.00    -0.134 OA
ENDROOT
BRANCH   1   5
ATOM      5  C   UNL d   1      64.298  91.202  94.563  0.00  0.00     0.286 C 
ATOM      6  O   UNL d   1      64.894  91.805  93.603  0.00  0.00    -0.279 OA
BRANCH   5   7
ATOM      7  C   UNL d   1      62.639  91.074  94.361  0.00  0.00     0.285 C 
ATOM      8  O   UNL d   1      62.154  91.842  93.458  0.00  0.00    -0.279 OA
BRANCH   7   9
ATOM      9  C   UNL d   1      61.478  90.194  95.046  0.00  0.00     0.289 C 
ATOM     10  O   UNL d   1      61.391  90.065  96.311  0.00  0.00    -0.273 OA
BRANCH   9  11
ATOM     11  C   UNL d   1      60.388  89.435  94.372  0.00  0.00     0.038 C 
BRANCH  11  12
ATOM     12  N   UNL d   1      59.662  88.621  93.364  0.00  0.00    -0.224 NA
ATOM     13  C   UNL d   1      59.030  87.350  93.762  0.00  0.00     0.163 C 
ENDBRANCH  11  12
ENDBRANCH   9  11
ENDBRANCH   7   9
ENDBRANCH   5   7
ENDBRANCH   1   5
TORSDOF 5
ENDMDL
MODEL 8
REMARK VINA RESULT:      -4.6      2.288      4.627
REMARK  5 active torsions:
REMARK  status: ('A' for Active; 'I' for Inactive)
REMARK    1  A    between atoms: N_1  and  C_2 
REMARK    2  A    between atoms: C_2  and  C_3 
REMARK    3  A    between atoms: C_3  and  C_5 
REMARK    4  A    between atoms: C_5  and  C_7 
REMARK    5  A    between atoms: C_7  and  C_9 
ROOT
ATOM      1  C   UNL d   1      63.446  91.036  95.128  0.00  0.00     0.297 C 
ATOM      2  O   UNL d   1      64.098  91.635  96.045  0.00  0.00    -0.272 OA
ATOM      3  C   UNL d   1      62.249  90.313  95.668  0.00  0.00     0.102 C 
ATOM      4  O   UNL d   1      61.152  89.675  96.302  0.00  0.00    -0.134 OA
ENDROOT
BRANCH   1   5
ATOM      5  C   UNL d   1      63.925  91.098  93.574  0.00  0.00     0.286 C 
ATOM      6  O   UNL d   1      64.896  91.921  93.424  0.00  0.00    -0.279 OA
BRANCH   5   7
ATOM      7  C   UNL d   1      63.445  90.345  92.156  0.00  0.00     0.285 C 
ATOM      8  O   UNL d   1      63.638  91.037  91.096  0.00  0.00    -0.279 OA
BRANCH   7   9
ATOM      9  C   UNL d   1      62.782  88.923  91.797  0.00  0.00     0.289 C 
ATOM     10  O   UNL d   1      61.565  88.662  92.068  0.00  0.00    -0.273 OA
BRANCH   9  11
ATOM     11  C   UNL d   1      63.428  87.754  91.137  0.00  0.00     0.038 C 
BRANCH  11  12
ATOM     12  N   UNL d   1      64.232  86.520  90.944  0.00  0.00    -0.224 NA
ATOM     13  C   UNL d   1      65.518  86.363  91.648  0.00  0.00     0.163 C 
ENDBRANCH  11  12
ENDBRANCH   9  11
ENDBRANCH   7   9
ENDBRANCH   5   7
ENDBRANCH   1   5
TORSDOF 5
ENDMDL
MODEL 9
REMARK VINA RESULT:      -4.5     20.132     21.254
REMARK  5 active torsions:
REMARK  status: ('A' for Active; 'I' for Inactive)
REMARK    1  A    between atoms: N_1  and  C_2 
REMARK    2  A    between atoms: C_2  and  C_3 
REMARK    3  A    between atoms: C_3  and  C_5 
REMARK    4  A    between atoms: C_5  and  C_7 
REMARK    5  A    between atoms: C_7  and  C_9 
ROOT
ATOM      1  C   UNL d   1      79.436  79.285  98.902  0.00  0.00     0.297 C 
ATOM      2  O   UNL d   1      78.252  78.828  98.783  0.00  0.00    -0.272 OA
ATOM      3  C   UNL d   1      80.433  78.199  99.178  0.00  0.00     0.102 C 
ATOM      4  O   UNL d   1      81.272  77.085  99.434  0.00  0.00    -0.134 OA
ENDROOT
BRANCH   1   5
ATOM      5  C   UNL d   1      79.747  80.875  98.757  0.00  0.00     0.286 C 
ATOM      6  O   UNL d   1      78.999  81.564  99.538  0.00  0.00    -0.279 OA
BRANCH   5   7
ATOM      7  C   UNL d   1      80.800  81.797  97.836  0.00  0.00     0.285 C 
ATOM      8  O   UNL d   1      81.346  82.768  98.467  0.00  0.00    -0.279 OA
BRANCH   7   9
ATOM      9  C   UNL d   1      81.305  81.754  96.308  0.00  0.00     0.289 C 
ATOM     10  O   UNL d   1      82.068  82.653  95.827  0.00  0.00    -0.273 OA
BRANCH   9  11
ATOM     11  C   UNL d   1      80.991  80.732  95.270  0.00  0.00     0.038 C 
BRANCH  11  12
ATOM     12  N   UNL d   1      81.008  79.988  93.984  0.00  0.00    -0.224 NA
ATOM     13  C   UNL d   1      82.274  79.431  93.473  0.00  0.00     0.163 C 
ENDBRANCH  11  12
ENDBRANCH   9  11
ENDBRANCH   7   9
ENDBRANCH   5   7
ENDBRANCH   1   5
TORSDOF 5
ENDMDL
MODEL 10
REMARK VINA RESULT:      -4.5     23.795     26.221
REMARK  5 active torsions:
REMARK  status: ('A' for Active; 'I' for Inactive)
REMARK    1  A    between atoms: N_1  and  C_2 
REMARK    2  A    between atoms: C_2  and  C_3 
REMARK    3  A    between atoms: C_3  and  C_5 
REMARK    4  A    between atoms: C_5  and  C_7 
REMARK    5  A    between atoms: C_7  and  C_9 
ROOT
ATOM      1  C   UNL d   1      74.507  70.360  89.819  0.00  0.00     0.297 C 
ATOM      2  O   UNL d   1      73.419  69.703  89.723  0.00  0.00    -0.272 OA
ATOM      3  C   UNL d   1      74.348  71.592  90.660  0.00  0.00     0.102 C 
ATOM      4  O   UNL d   1      74.069  72.721  91.471  0.00  0.00    -0.134 OA
ENDROOT
BRANCH   1   5
ATOM      5  C   UNL d   1      75.867  69.853  89.084  0.00  0.00     0.286 C 
ATOM      6  O   UNL d   1      76.904  70.161  89.772  0.00  0.00    -0.279 OA
BRANCH   5   7
ATOM      7  C   UNL d   1      76.211  69.037  87.662  0.00  0.00     0.285 C 
ATOM      8  O   UNL d   1      75.388  69.264  86.708  0.00  0.00    -0.279 OA
BRANCH   7   9
ATOM      9  C   UNL d   1      77.359  68.009  87.195  0.00  0.00     0.289 C 
ATOM     10  O   UNL d   1      77.972  68.146  86.086  0.00  0.00    -0.273 OA
BRANCH   9  11
ATOM     11  C   UNL d   1      77.864  66.811  87.922  0.00  0.00     0.038 C 
BRANCH  11  12
ATOM     12  N   UNL d   1      78.587  65.545  88.206  0.00  0.00    -0.224 NA
ATOM     13  C   UNL d   1      79.766  65.553  89.091  0.00  0.00     0.163 C 
ENDBRANCH  11  12
ENDBRANCH   9  11
ENDBRANCH   7   9
ENDBRANCH   5   7
ENDBRANCH   1   5
TORSDOF 5
ENDMDL
MODEL 11
REMARK VINA RESULT:      -4.5     18.143     19.285
REMARK  5 active torsions:
REMARK  status: ('A' for Active; 'I' for Inactive)
REMARK    1  A    between atoms: N_1  and  C_2 
REMARK    2  A    between atoms: C_2  and  C_3 
REMARK    3  A    between atoms: C_3  and  C_5 
REMARK    4  A    between atoms: C_5  and  C_7 
REMARK    5  A    between atoms: C_7  and  C_9 
ROOT
ATOM      1  C   UNL d   1      79.288  79.915  99.198  0.00  0.00     0.297 C 
ATOM      2  O   UNL d   1      78.088  79.573  99.460  0.00  0.00    -0.272 OA
ATOM      3  C   UNL d   1      80.224  78.742  99.214  0.00  0.00     0.102 C 
ATOM      4  O   UNL d   1      81.001  77.557  99.260  0.00  0.00    -0.134 OA
ENDROOT
BRANCH   1   5
ATOM      5  C   UNL d   1      79.677  81.465  98.892  0.00  0.00     0.286 C 
ATOM      6  O   UNL d   1      80.707  81.822  99.565  0.00  0.00    -0.279 OA
BRANCH   5   7
ATOM      7  C   UNL d   1      79.048  82.673  97.916  0.00  0.00     0.285 C 
ATOM      8  O   UNL d   1      79.807  83.696  97.783  0.00  0.00    -0.279 OA
BRANCH   7   9
ATOM      9  C   UNL d   1      77.683  82.862  97.084  0.00  0.00     0.289 C 
ATOM     10  O   UNL d   1      76.631  83.343  97.619  0.00  0.00    -0.273 OA
BRANCH   9  11
ATOM     11  C   UNL d   1      77.432  82.533  95.653  0.00  0.00     0.038 C 
BRANCH  11  12
ATOM     12  N   UNL d   1      77.424  81.792  94.366  0.00  0.00    -0.224 NA
ATOM     13  C   UNL d   1      78.371  80.683  94.149  0.00  0.00     0.163 C 
ENDBRANCH  11  12
ENDBRANCH   9  11
ENDBRANCH   7   9
ENDBRANCH   5   7
ENDBRANCH   1   5
TORSDOF 5
ENDMDL
MODEL 12
REMARK VINA RESULT:      -4.5     21.557     22.625
REMARK  5 active torsions:
REMARK  status: ('A' for Active; 'I' for Inactive)
REMARK    1  A    between atoms: N_1  and  C_2 
REMARK    2  A    between atoms: C_2  and  C_3 
REMARK    3  A    between atoms: C_3  and  C_5 
REMARK    4  A    between atoms: C_5  and  C_7 
REMARK    5  A    between atoms: C_7  and  C_9 
ROOT
ATOM      1  C   UNL d   1      57.564  72.410  82.151  0.00  0.00     0.297 C 
ATOM      2  O   UNL d   1      58.016  72.468  83.341  0.00  0.00    -0.272 OA
ATOM      3  C   UNL d   1      58.659  72.467  81.128  0.00  0.00     0.102 C 
ATOM      4  O   UNL d   1      59.782  72.530  80.264  0.00  0.00    -0.134 OA
ENDROOT
BRANCH   1   5
ATOM      5  C   UNL d   1      55.968  72.288  81.860  0.00  0.00     0.286 C 
ATOM      6  O   UNL d   1      55.390  71.572  82.752  0.00  0.00    -0.279 OA
BRANCH   5   7
ATOM      7  C   UNL d   1      54.931  72.875  80.682  0.00  0.00     0.285 C 
ATOM      8  O   UNL d   1      55.465  73.014  79.526  0.00  0.00    -0.279 OA
BRANCH   7   9
ATOM      9  C   UNL d   1      53.383  73.317  80.653  0.00  0.00     0.289 C 
ATOM     10  O   UNL d   1      52.478  72.634  81.235  0.00  0.00    -0.273 OA
BRANCH   9  11
ATOM     11  C   UNL d   1      52.785  74.510  79.990  0.00  0.00     0.038 C 
BRANCH  11  12
ATOM     12  N   UNL d   1      52.620  75.896  79.483  0.00  0.00    -0.224 NA
ATOM     13  C   UNL d   1      53.808  76.730  79.221  0.00  0.00     0.163 C 
ENDBRANCH  11  12
ENDBRANCH   9  11
ENDBRANCH   7   9
ENDBRANCH   5   7
ENDBRANCH   1   5
TORSDOF 5
ENDMDL
MODEL 13
REMARK VINA RESULT:      -4.3     20.453     22.011
REMARK  5 active torsions:
REMARK  status: ('A' for Active; 'I' for Inactive)
REMARK    1  A    between atoms: N_1  and  C_2 
REMARK    2  A    between atoms: C_2  and  C_3 
REMARK    3  A    between atoms: C_3  and  C_5 
REMARK    4  A    between atoms: C_5  and  C_7 
REMARK    5  A    between atoms: C_7  and  C_9 
ROOT
ATOM      1  C   UNL d   1      79.491  80.759  98.909  0.00  0.00     0.297 C 
ATOM      2  O   UNL d   1      79.909  81.873  99.366  0.00  0.00    -0.272 OA
ATOM      3  C   UNL d   1      78.166  80.371  99.494  0.00  0.00     0.102 C 
ATOM      4  O   UNL d   1      76.918  80.120 100.118  0.00  0.00    -0.134 OA
ENDROOT
BRANCH   1   5
ATOM      5  C   UNL d   1      80.356  79.916  97.819  0.00  0.00     0.286 C 
ATOM      6  O   UNL d   1      80.235  78.655  98.010  0.00  0.00    -0.279 OA
BRANCH   5   7
ATOM      7  C   UNL d   1      81.349  80.317  96.529  0.00  0.00     0.285 C 
ATOM      8  O   UNL d   1      81.318  79.484  95.557  0.00  0.00    -0.279 OA
BRANCH   7   9
ATOM      9  C   UNL d   1      82.358  81.529  96.211  0.00  0.00     0.289 C 
ATOM     10  O   UNL d   1      81.938  82.706  95.964  0.00  0.00    -0.273 OA
BRANCH   9  11
ATOM     11  C   UNL d   1      83.847  81.488  96.154  0.00  0.00     0.038 C 
BRANCH  11  12
ATOM     12  N   UNL d   1      85.264  81.372  96.585  0.00  0.00    -0.224 NA
ATOM     13  C   UNL d   1      85.877  80.041  96.743  0.00  0.00     0.163 C 
ENDBRANCH  11  12
ENDBRANCH   9  11
ENDBRANCH   7   9
ENDBRANCH   5   7
ENDBRANCH   1   5
TORSDOF 5
ENDMDL
MODEL 14
REMARK VINA RESULT:      -4.3     25.168     27.294
REMARK  5 active torsions:
REMARK  status: ('A' for Active; 'I' for Inactive)
REMARK    1  A    between atoms: N_1  and  C_2 
REMARK    2  A    between atoms: C_2  and  C_3 
REMARK    3  A    between atoms: C_3  and  C_5 
REMARK    4  A    between atoms: C_5  and  C_7 
REMARK    5  A    between atoms: C_7  and  C_9 
ROOT
ATOM      1  C   UNL d   1      76.837  69.341  90.428  0.00  0.00     0.297 C 
ATOM      2  O   UNL d   1      78.048  69.259  90.819  0.00  0.00    -0.272 OA
ATOM      3  C   UNL d   1      75.870  69.264  91.572  0.00  0.00     0.102 C 
ATOM      4  O   UNL d   1      75.063  69.179  92.735  0.00  0.00    -0.134 OA
ENDROOT
BRANCH   1   5
ATOM      5  C   UNL d   1      76.468  69.509  88.853  0.00  0.00     0.286 C 
ATOM      6  O   UNL d   1      75.670  70.495  88.669  0.00  0.00    -0.279 OA
BRANCH   5   7
ATOM      7  C   UNL d   1      76.886  68.701  87.446  0.00  0.00     0.285 C 
ATOM      8  O   UNL d   1      76.271  69.106  86.398  0.00  0.00    -0.279 OA
BRANCH   7   9
ATOM      9  C   UNL d   1      77.902  67.506  87.085  0.00  0.00     0.289 C 
ATOM     10  O   UNL d   1      78.538  67.475  85.981  0.00  0.00    -0.273 OA
BRANCH   9  11
ATOM     11  C   UNL d   1      78.249  66.319  87.916  0.00  0.00     0.038 C 
BRANCH  11  12
ATOM     12  N   UNL d   1      78.983  65.134  88.432  0.00  0.00    -0.224 NA
ATOM     13  C   UNL d   1      80.156  65.318  89.306  0.00  0.00     0.163 C 
ENDBRANCH  11  12
ENDBRANCH   9  11
ENDBRANCH   7   9
ENDBRANCH   5   7
ENDBRANCH   1   5
TORSDOF 5
ENDMDL
MODEL 15
REMARK VINA RESULT:      -4.3      2.948      5.173
REMARK  5 active torsions:
REMARK  status: ('A' for Active; 'I' for Inactive)
REMARK    1  A    between atoms: N_1  and  C_2 
REMARK    2  A    between atoms: C_2  and  C_3 
REMARK    3  A    between atoms: C_3  and  C_5 
REMARK    4  A    between atoms: C_5  and  C_7 
REMARK    5  A    between atoms: C_7  and  C_9 
ROOT
ATOM      1  C   UNL d   1      61.722  89.147  95.444  0.00  0.00     0.297 C 
ATOM      2  O   UNL d   1      61.130  89.788  96.372  0.00  0.00    -0.272 OA
ATOM      3  C   UNL d   1      62.004  87.726  95.833  0.00  0.00     0.102 C 
ATOM      4  O   UNL d   1      62.212  86.410  96.319  0.00  0.00    -0.134 OA
ENDROOT
BRANCH   1   5
ATOM      5  C   UNL d   1      62.094  89.859  94.029  0.00  0.00     0.286 C 
ATOM      6  O   UNL d   1      61.304  89.473  93.097  0.00  0.00    -0.279 OA
BRANCH   5   7
ATOM      7  C   UNL d   1      63.252  90.961  93.527  0.00  0.00     0.285 C 
ATOM      8  O   UNL d   1      62.829  91.827  92.683  0.00  0.00    -0.279 OA
BRANCH   7   9
ATOM      9  C   UNL d   1      64.809  91.200  93.859  0.00  0.00     0.289 C 
ATOM     10  O   UNL d   1      65.451  92.195  93.389  0.00  0.00    -0.273 OA
BRANCH   9  11
ATOM     11  C   UNL d   1      65.700  90.362  94.709  0.00  0.00     0.038 C 
BRANCH  11  12
ATOM     12  N   UNL d   1      66.555  89.931  95.845  0.00  0.00    -0.224 NA
ATOM     13  C   UNL d   1      66.034  88.969  96.833  0.00  0.00     0.163 C 
ENDBRANCH  11  12
ENDBRANCH   9  11
ENDBRANCH   7   9
ENDBRANCH   5   7
ENDBRANCH   1   5
TORSDOF 5
ENDMDL
MODEL 16
REMARK VINA RESULT:      -4.3      3.073      3.908
REMARK  5 active torsions:
REMARK  status: ('A' for Active; 'I' for Inactive)
REMARK    1  A    between atoms: N_1  and  C_2 
REMARK    2  A    between atoms: C_2  and  C_3 
REMARK    3  A    between atoms: C_3  and  C_5 
REMARK    4  A    between atoms: C_5  and  C_7 
REMARK    5  A    between atoms: C_7  and  C_9 
ROOT
ATOM      1  C   UNL d   1      65.915  88.385  94.962  0.00  0.00     0.297 C 
ATOM      2  O   UNL d   1      65.187  87.488  95.499  0.00  0.00    -0.272 OA
ATOM      3  C   UNL d   1      67.315  88.372  95.502  0.00  0.00     0.102 C 
ATOM      4  O   UNL d   1      68.599  88.256  96.091  0.00  0.00    -0.134 OA
ENDROOT
BRANCH   1   5
ATOM      5  C   UNL d   1      65.320  89.390  93.830  0.00  0.00     0.286 C 
ATOM      6  O   UNL d   1      65.635  88.995  92.652  0.00  0.00    -0.279 OA
BRANCH   5   7
ATOM      7  C   UNL d   1      64.409  90.796  93.855  0.00  0.00     0.285 C 
ATOM      8  O   UNL d   1      65.089  91.872  93.719  0.00  0.00    -0.279 OA
BRANCH   7   9
ATOM      9  C   UNL d   1      62.841  91.127  94.013  0.00  0.00     0.289 C 
ATOM     10  O   UNL d   1      62.227  91.877  93.186  0.00  0.00    -0.273 OA
BRANCH   9  11
ATOM     11  C   UNL d   1      61.909  90.651  95.072  0.00  0.00     0.038 C 
BRANCH  11  12
ATOM     12  N   UNL d   1      61.341  89.838  96.179  0.00  0.00    -0.224 NA
ATOM     13  C   UNL d   1      61.287  88.370  96.060  0.00  0.00     0.163 C 
ENDBRANCH  11  12
ENDBRANCH   9  11
ENDBRANCH   7   9
ENDBRANCH   5   7
ENDBRANCH   1   5
TORSDOF 5
ENDMDL
MODEL 17
REMARK VINA RESULT:      -4.3     19.656     21.646
REMARK  5 active torsions:
REMARK  status: ('A' for Active; 'I' for Inactive)
REMARK    1  A    between atoms: N_1  and  C_2 
REMARK    2  A    between atoms: C_2  and  C_3 
REMARK    3  A    between atoms: C_3  and  C_5 
REMARK    4  A    between atoms: C_5  and  C_7 
REMARK    5  A    between atoms: C_7  and  C_9 
ROOT
ATOM      1  C   UNL d   1      60.512  73.705  81.114  0.00  0.00     0.297 C 
ATOM      2  O   UNL d   1      61.129  72.946  80.296  0.00  0.00    -0.272 OA
ATOM      3  C   UNL d   1      61.140  75.064  81.204  0.00  0.00     0.102 C 
ATOM      4  O   UNL d   1      61.823  76.306  81.197  0.00  0.00    -0.134 OA
ENDROOT
BRANCH   1   5
ATOM      5  C   UNL d   1      59.203  73.183  81.927  0.00  0.00     0.286 C 
ATOM      6  O   UNL d   1      59.297  73.457  83.176  0.00  0.00    -0.279 OA
BRANCH   5   7
ATOM      7  C   UNL d   1      57.790  72.384  81.511  0.00  0.00     0.285 C 
ATOM      8  O   UNL d   1      57.799  71.867  80.339  0.00  0.00    -0.279 OA
BRANCH   7   9
ATOM      9  C   UNL d   1      56.387  72.104  82.249  0.00  0.00     0.289 C 
ATOM     10  O   UNL d   1      56.332  71.706  83.458  0.00  0.00    -0.273 OA
BRANCH   9  11
ATOM     11  C   UNL d   1      55.015  72.251  81.689  0.00  0.00     0.038 C 
BRANCH  11  12
ATOM     12  N   UNL d   1      53.626  71.921  81.277  0.00  0.00    -0.224 NA
ATOM     13  C   UNL d   1      52.685  73.003  80.933  0.00  0.00     0.163 C 
ENDBRANCH  11  12
ENDBRANCH   9  11
ENDBRANCH   7   9
ENDBRANCH   5   7
ENDBRANCH   1   5
TORSDOF 5
ENDMDL
MODEL 18
REMARK VINA RESULT:      -4.3     24.064     26.253
REMARK  5 active torsions:
REMARK  status: ('A' for Active; 'I' for Inactive)
REMARK    1  A    between atoms: N_1  and  C_2 
REMARK    2  A    between atoms: C_2  and  C_3 
REMARK    3  A    between atoms: C_3  and  C_5 
REMARK    4  A    between atoms: C_5  and  C_7 
REMARK    5  A    between atoms: C_7  and  C_9 
ROOT
ATOM      1  C   UNL d   1      78.176  67.460  87.286  0.00  0.00     0.297 C 
ATOM      2  O   UNL d   1      78.392  67.390  86.031  0.00  0.00    -0.272 OA
ATOM      3  C   UNL d   1      78.395  66.143  87.970  0.00  0.00     0.102 C 
ATOM      4  O   UNL d   1      78.633  64.848  88.494  0.00  0.00    -0.134 OA
ENDROOT
BRANCH   1   5
ATOM      5  C   UNL d   1      77.719  68.856  87.987  0.00  0.00     0.286 C 
ATOM      6  O   UNL d   1      78.738  69.547  88.344  0.00  0.00    -0.279 OA
BRANCH   5   7
ATOM      7  C   UNL d   1      76.249  69.578  88.340  0.00  0.00     0.285 C 
ATOM      8  O   UNL d   1      75.304  69.280  87.530  0.00  0.00    -0.279 OA
BRANCH   7   9
ATOM      9  C   UNL d   1      75.726  70.582  89.484  0.00  0.00     0.289 C 
ATOM     10  O   UNL d   1      75.703  71.844  89.311  0.00  0.00    -0.273 OA
BRANCH   9  11
ATOM     11  C   UNL d   1      75.218  70.237  90.841  0.00  0.00     0.038 C 
BRANCH  11  12
ATOM     12  N   UNL d   1      74.850  69.440  92.040  0.00  0.00    -0.224 NA
ATOM     13  C   UNL d   1      75.901  68.970  92.961  0.00  0.00     0.163 C 
ENDBRANCH  11  12
ENDBRANCH   9  11
ENDBRANCH   7   9
ENDBRANCH   5   7
ENDBRANCH   1   5
TORSDOF 5
ENDMDL
MODEL 19
REMARK VINA RESULT:      -4.3      2.527      4.511
REMARK  5 active torsions:
REMARK  status: ('A' for Active; 'I' for Inactive)
REMARK    1  A    between atoms: N_1  and  C_2 
REMARK    2  A    between atoms: C_2  and  C_3 
REMARK    3  A    between atoms: C_3  and  C_5 
REMARK    4  A    between atoms: C_5  and  C_7 
REMARK    5  A    between atoms: C_7  and  C_9 
ROOT
ATOM      1  C   UNL d   1      64.484  90.792  94.425  0.00  0.00     0.297 C 
ATOM      2  O   UNL d   1      63.958  90.314  95.483  0.00  0.00    -0.272 OA
ATOM      3  C   UNL d   1      65.932  91.130  94.619  0.00  0.00     0.102 C 
ATOM      4  O   UNL d   1      67.288  91.407  94.930  0.00  0.00    -0.134 OA
ENDROOT
BRANCH   1   5
ATOM      5  C   UNL d   1      63.616  90.980  93.062  0.00  0.00     0.286 C 
ATOM      6  O   UNL d   1      62.583  91.711  93.271  0.00  0.00    -0.279 OA
BRANCH   5   7
ATOM      7  C   UNL d   1      63.763  90.447  91.480  0.00  0.00     0.285 C 
ATOM      8  O   UNL d   1      63.978  91.375  90.625  0.00  0.00    -0.279 OA
BRANCH   7   9
ATOM      9  C   UNL d   1      63.699  89.009  90.759  0.00  0.00     0.289 C 
ATOM     10  O   UNL d   1      64.568  88.105  90.984  0.00  0.00    -0.273 OA
BRANCH   9  11
ATOM     11  C   UNL d   1      62.688  88.523  89.778  0.00  0.00     0.038 C 
BRANCH  11  12
ATOM     12  N   UNL d   1      61.757  87.619  89.056  0.00  0.00    -0.224 NA
ATOM     13  C   UNL d   1      60.811  86.780  89.814  0.00  0.00     0.163 C 
ENDBRANCH  11  12
ENDBRANCH   9  11
ENDBRANCH   7   9
ENDBRANCH   5   7
ENDBRANCH   1   5
TORSDOF 5
ENDMDL
MODEL 20
REMARK VINA RESULT:      -4.2      2.945      5.305
REMARK  5 active torsions:
REMARK  status: ('A' for Active; 'I' for Inactive)
REMARK    1  A    between atoms: N_1  and  C_2 
REMARK    2  A    between atoms: C_2  and  C_3 
REMARK    3  A    between atoms: C_3  and  C_5 
REMARK    4  A    between atoms: C_5  and  C_7 
REMARK    5  A    between atoms: C_7  and  C_9 
ROOT
ATOM      1  C   UNL d   1      63.754  90.851  94.433  0.00  0.00     0.297 C 
ATOM      2  O   UNL d   1      63.269  91.823  95.100  0.00  0.00    -0.272 OA
ATOM      3  C   UNL d   1      64.497  89.884  95.307  0.00  0.00     0.102 C 
ATOM      4  O   UNL d   1      65.168  89.050  96.237  0.00  0.00    -0.134 OA
ENDROOT
BRANCH   1   5
ATOM      5  C   UNL d   1      63.547  90.746  92.823  0.00  0.00     0.286 C 
ATOM      6  O   UNL d   1      63.221  91.881  92.325  0.00  0.00    -0.279 OA
BRANCH   5   7
ATOM      7  C   UNL d   1      63.662  89.514  91.693  0.00  0.00     0.285 C 
ATOM      8  O   UNL d   1      62.874  89.639  90.691  0.00  0.00    -0.279 OA
BRANCH   7   9
ATOM      9  C   UNL d   1      64.547  88.176  91.560  0.00  0.00     0.289 C 
ATOM     10  O   UNL d   1      64.351  87.330  90.628  0.00  0.00    -0.273 OA
BRANCH   9  11
ATOM     11  C   UNL d   1      65.664  87.729  92.439  0.00  0.00     0.038 C 
BRANCH  11  12
ATOM     12  N   UNL d   1      66.980  87.697  93.127  0.00  0.00    -0.224 NA
ATOM     13  C   UNL d   1      67.901  86.568  92.901  0.00  0.00     0.163 C 
ENDBRANCH  11  12
ENDBRANCH   9  11
ENDBRANCH   7   9
ENDBRANCH   5   7
ENDBRANCH   1   5
TORSDOF 5
ENDMDL
