MODEL 1
REMARK VINA RESULT:      -1.3      0.000      0.000
REMARK  2 active torsions:
REMARK  status: ('A' for Active; 'I' for Inactive)
REMARK    1  A    between atoms: S_3  and  C_6 
REMARK    2  A    between atoms: C_6  and  C_7 
ROOT
ATOM      1 NA   UNL d   1      69.550  64.477  88.011  0.00  0.00     0.000 Na
ENDROOT
TORSDOF 2
ENDMDL
MODEL 2
REMARK VINA RESULT:      -1.2     28.518     28.518
REMARK  2 active torsions:
REMARK  status: ('A' for Active; 'I' for Inactive)
REMARK    1  A    between atoms: S_3  and  C_6 
REMARK    2  A    between atoms: C_6  and  C_7 
ROOT
ATOM      1 NA   UNL d   1      79.756  90.280  94.592  0.00  0.00     0.000 Na
ENDROOT
TORSDOF 2
ENDMDL
MODEL 3
REMARK VINA RESULT:      -1.2     19.834     19.834
REMARK  2 active torsions:
REMARK  status: ('A' for Active; 'I' for Inactive)
REMARK    1  A    between atoms: S_3  and  C_6 
REMARK    2  A    between atoms: C_6  and  C_7 
ROOT
ATOM      1 NA   UNL d   1      65.877  80.051  76.290  0.00  0.00     0.000 Na
ENDROOT
TORSDOF 2
ENDMDL
MODEL 4
REMARK VINA RESULT:      -1.2     16.299     16.299
REMARK  2 active torsions:
REMARK  status: ('A' for Active; 'I' for Inactive)
REMARK    1  A    between atoms: S_3  and  C_6 
REMARK    2  A    between atoms: C_6  and  C_7 
ROOT
ATOM      1 NA   UNL d   1      55.005  63.125  95.242  0.00  0.00     0.000 Na
ENDROOT
TORSDOF 2
ENDMDL
MODEL 5
REMARK VINA RESULT:      -1.1      4.327      4.327
REMARK  2 active torsions:
REMARK  status: ('A' for Active; 'I' for Inactive)
REMARK    1  A    between atoms: S_3  and  C_6 
REMARK    2  A    between atoms: C_6  and  C_7 
ROOT
ATOM      1 NA   UNL d   1      69.978  60.443  86.507  0.00  0.00     0.000 Na
ENDROOT
TORSDOF 2
ENDMDL
MODEL 6
REMARK VINA RESULT:      -1.1     18.292     18.292
REMARK  2 active torsions:
REMARK  status: ('A' for Active; 'I' for Inactive)
REMARK    1  A    between atoms: S_3  and  C_6 
REMARK    2  A    between atoms: C_6  and  C_7 
ROOT
ATOM      1 NA   UNL d   1      61.014  79.652  82.403  0.00  0.00     0.000 Na
ENDROOT
TORSDOF 2
ENDMDL
MODEL 7
REMARK VINA RESULT:      -1.1     18.446     18.446
REMARK  2 active torsions:
REMARK  status: ('A' for Active; 'I' for Inactive)
REMARK    1  A    between atoms: S_3  and  C_6 
REMARK    2  A    between atoms: C_6  and  C_7 
ROOT
ATOM      1 NA   UNL d   1      62.781  79.515  79.746  0.00  0.00     0.000 Na
ENDROOT
TORSDOF 2
ENDMDL
MODEL 8
REMARK VINA RESULT:      -1.1      2.310      2.310
REMARK  2 active torsions:
REMARK  status: ('A' for Active; 'I' for Inactive)
REMARK    1  A    between atoms: S_3  and  C_6 
REMARK    2  A    between atoms: C_6  and  C_7 
ROOT
ATOM      1 NA   UNL d   1      67.631  65.088  89.144  0.00  0.00     0.000 Na
ENDROOT
TORSDOF 2
ENDMDL
MODEL 9
REMARK VINA RESULT:      -1.1     11.732     11.732
REMARK  2 active torsions:
REMARK  status: ('A' for Active; 'I' for Inactive)
REMARK    1  A    between atoms: S_3  and  C_6 
REMARK    2  A    between atoms: C_6  and  C_7 
ROOT
ATOM      1 NA   UNL d   1      57.964  66.308  88.272  0.00  0.00     0.000 Na
ENDROOT
TORSDOF 2
ENDMDL
MODEL 10
REMARK VINA RESULT:      -1.1     19.074     19.074
REMARK  2 active torsions:
REMARK  status: ('A' for Active; 'I' for Inactive)
REMARK    1  A    between atoms: S_3  and  C_6 
REMARK    2  A    between atoms: C_6  and  C_7 
ROOT
ATOM      1 NA   UNL d   1      55.087  76.897  88.637  0.00  0.00     0.000 Na
ENDROOT
TORSDOF 2
ENDMDL
MODEL 11
REMARK VINA RESULT:      -1.1     15.124     15.124
REMARK  2 active torsions:
REMARK  status: ('A' for Active; 'I' for Inactive)
REMARK    1  A    between atoms: S_3  and  C_6 
REMARK    2  A    between atoms: C_6  and  C_7 
ROOT
ATOM      1 NA   UNL d   1      69.389  75.758  77.938  0.00  0.00     0.000 Na
ENDROOT
TORSDOF 2
ENDMDL
MODEL 12
REMARK VINA RESULT:      -1.0      7.922      7.922
REMARK  2 active torsions:
REMARK  status: ('A' for Active; 'I' for Inactive)
REMARK    1  A    between atoms: S_3  and  C_6 
REMARK    2  A    between atoms: C_6  and  C_7 
ROOT
ATOM      1 NA   UNL d   1      63.927  60.370  91.790  0.00  0.00     0.000 Na
ENDROOT
TORSDOF 2
ENDMDL
MODEL 13
REMARK VINA RESULT:      -1.0     17.046     17.046
REMARK  2 active torsions:
REMARK  status: ('A' for Active; 'I' for Inactive)
REMARK    1  A    between atoms: S_3  and  C_6 
REMARK    2  A    between atoms: C_6  and  C_7 
ROOT
ATOM      1 NA   UNL d   1      77.856  76.721  79.546  0.00  0.00     0.000 Na
ENDROOT
TORSDOF 2
ENDMDL
MODEL 14
REMARK VINA RESULT:      -1.0     19.780     19.780
REMARK  2 active torsions:
REMARK  status: ('A' for Active; 'I' for Inactive)
REMARK    1  A    between atoms: S_3  and  C_6 
REMARK    2  A    between atoms: C_6  and  C_7 
ROOT
ATOM      1 NA   UNL d   1      67.822  80.333  76.312  0.00  0.00     0.000 Na
ENDROOT
TORSDOF 2
ENDMDL
MODEL 15
REMARK VINA RESULT:      -1.0     18.148     18.148
REMARK  2 active torsions:
REMARK  status: ('A' for Active; 'I' for Inactive)
REMARK    1  A    between atoms: S_3  and  C_6 
REMARK    2  A    between atoms: C_6  and  C_7 
ROOT
ATOM      1 NA   UNL d   1      62.547  80.669  83.754  0.00  0.00     0.000 Na
ENDROOT
TORSDOF 2
ENDMDL
MODEL 16
REMARK VINA RESULT:      -1.0      6.741      6.741
REMARK  2 active torsions:
REMARK  status: ('A' for Active; 'I' for Inactive)
REMARK    1  A    between atoms: S_3  and  C_6 
REMARK    2  A    between atoms: C_6  and  C_7 
ROOT
ATOM      1 NA   UNL d   1      71.934  65.788  94.179  0.00  0.00     0.000 Na
ENDROOT
TORSDOF 2
ENDMDL
MODEL 17
REMARK VINA RESULT:      -1.0      6.938      6.938
REMARK  2 active torsions:
REMARK  status: ('A' for Active; 'I' for Inactive)
REMARK    1  A    between atoms: S_3  and  C_6 
REMARK    2  A    between atoms: C_6  and  C_7 
ROOT
ATOM      1 NA   UNL d   1      70.032  62.842  94.736  0.00  0.00     0.000 Na
ENDROOT
TORSDOF 2
ENDMDL
MODEL 18
REMARK VINA RESULT:      -1.0     17.897     17.897
REMARK  2 active torsions:
REMARK  status: ('A' for Active; 'I' for Inactive)
REMARK    1  A    between atoms: S_3  and  C_6 
REMARK    2  A    between atoms: C_6  and  C_7 
ROOT
ATOM      1 NA   UNL d   1      55.583  75.595  86.740  0.00  0.00     0.000 Na
ENDROOT
TORSDOF 2
ENDMDL
MODEL 19
REMARK VINA RESULT:      -0.9     28.616     28.616
REMARK  2 active torsions:
REMARK  status: ('A' for Active; 'I' for Inactive)
REMARK    1  A    between atoms: S_3  and  C_6 
REMARK    2  A    between atoms: C_6  and  C_7 
ROOT
ATOM      1 NA   UNL d   1      72.129  92.671  83.842  0.00  0.00     0.000 Na
ENDROOT
TORSDOF 2
ENDMDL
MODEL 20
REMARK VINA RESULT:      -0.9     29.611     29.611
REMARK  2 active torsions:
REMARK  status: ('A' for Active; 'I' for Inactive)
REMARK    1  A    between atoms: S_3  and  C_6 
REMARK    2  A    between atoms: C_6  and  C_7 
ROOT
ATOM      1 NA   UNL d   1      66.734  93.128  81.081  0.00  0.00     0.000 Na
ENDROOT
TORSDOF 2
ENDMDL
