MODEL 1
REMARK VINA RESULT:      -7.6      0.000      0.000
REMARK  9 active torsions:
REMARK  status: ('A' for Active; 'I' for Inactive)
REMARK    1  A    between atoms: C_5  and  C_7 
REMARK    2  A    between atoms: C_7  and  N_8 
REMARK    3  A    between atoms: N_8  and  C_9 
REMARK    4  A    between atoms: C_12  and  C_15 
REMARK       I    between atoms: C_15  and  N_17 
REMARK    5  A    between atoms: CA_18  and  N_17 
REMARK    6  A    between atoms: CA_18  and  CB_19 
REMARK    7  A    between atoms: CA_18  and  C_24 
REMARK    8  A    between atoms: CB_19  and  CG_20 
REMARK    9  A    between atoms: CG_20  and  CD_21 
ROOT
ATOM      1  C   UNK d   0      63.172  71.211 100.026  0.00  0.00     0.067 A 
ATOM      2  C   UNK d   0      63.837  72.446 100.071  0.00  0.00     0.018 A 
ATOM      3  C   UNK d   0      64.483  72.892 101.223  0.00  0.00     0.006 A 
ATOM      4  C   UNK d   0      64.437  72.120 102.382  0.00  0.00     0.058 A 
ATOM      5  C   UNK d   0      63.759  70.900 102.375  0.00  0.00     0.006 A 
ATOM      6  C   UNK d   0      63.141  70.453 101.207  0.00  0.00     0.018 A 
ENDROOT
BRANCH   1   7
ATOM      7  N   UNK d   0      62.531  70.754  98.850  0.00  0.00    -0.291 N 
ATOM      8  C   UNK d   0      61.187  70.188  98.885  0.00  0.00     0.140 C 
BRANCH   7   9
ATOM      9  C   UNK d   0      62.929  71.249  97.540  0.00  0.00    -0.003 C 
BRANCH   9  10
ATOM     10  C   UNK d   0      63.386  71.595  96.239  0.00  0.00     0.151 A 
ATOM     11  C   UNK d   0      64.581  71.140  95.728  0.00  0.00     0.129 A 
ATOM     12  N   UNK d   0      64.933  71.362  94.433  0.00  0.00    -0.222 NA
ATOM     13  C   UNK d   0      64.083  72.031  93.648  0.00  0.00     0.185 A 
ATOM     14  C   UNK d   0      62.873  72.499  94.176  0.00  0.00     0.149 A 
ATOM     15  N   UNK d   0      64.444  72.202  92.380  0.00  0.00    -0.194 NA
ATOM     16  N   UNK d   0      62.511  72.286  95.477  0.00  0.00    -0.229 NA
ATOM     17  C   UNK d   0      62.098  73.167  93.238  0.00  0.00     0.174 A 
ATOM     18  N   UNK d   0      62.429  73.358  91.944  0.00  0.00    -0.199 NA
ATOM     19  N   UNK d   0      60.829  73.701  93.635  0.00  0.00    -0.078 NA
ATOM     20  C   UNK d   0      63.606  72.856  91.574  0.00  0.00     0.240 A 
ATOM     21  N   UNK d   0      63.989  73.016  90.210  0.00  0.00    -0.059 NA
ENDBRANCH   9  10
ENDBRANCH   7   9
ENDBRANCH   1   7
BRANCH   4  22
ATOM     22  C   UNK d   0      65.212  72.566 103.565  0.00  0.00     0.280 C 
ATOM     23  O   UNK d   0      64.952  72.008 104.633  0.00  0.00    -0.265 OA
ATOM     24  N   GLU d   1      66.002  73.619 103.338  0.00  0.00    -0.193 NA
BRANCH  24  25
ATOM     25  CA  GLU d   1      67.332  73.459 103.619  0.00  0.00     0.190 C 
BRANCH  25  26
ATOM     26  CB  GLU d   1      67.912  72.225 103.147  0.00  0.00    -0.028 C 
BRANCH  26  27
ATOM     27  CG  GLU d   1      68.611  70.926 102.624  0.00  0.00     0.012 C 
BRANCH  27  28
ATOM     28  CD  GLU d   1      69.291  69.674 102.084  0.00  0.00     0.258 C 
ATOM     29  OE1 GLU d   1      68.625  68.588 102.094  0.00  0.00    -0.637 OA
ATOM     30  OE2 GLU d   1      70.486  69.797 101.656  0.00  0.00    -0.637 OA
ENDBRANCH  27  28
ENDBRANCH  26  27
ENDBRANCH  25  26
BRANCH  25  31
ATOM     31  C   GLU d   1      68.224  74.385 104.521  0.00  0.00     0.238 C 
ATOM     32  O   GLU d   1      68.555  75.510 104.024  0.00  0.00    -0.642 OA
ATOM     33  OXT GLU d   1      68.613  73.883 105.629  0.00  0.00    -0.642 OA
ENDBRANCH  25  31
ENDBRANCH  24  25
ENDBRANCH   4  22
TORSDOF 9
ENDMDL
MODEL 2
REMARK VINA RESULT:      -7.4      5.670      8.631
REMARK  9 active torsions:
REMARK  status: ('A' for Active; 'I' for Inactive)
REMARK    1  A    between atoms: C_5  and  C_7 
REMARK    2  A    between atoms: C_7  and  N_8 
REMARK    3  A    between atoms: N_8  and  C_9 
REMARK    4  A    between atoms: C_12  and  C_15 
REMARK       I    between atoms: C_15  and  N_17 
REMARK    5  A    between atoms: CA_18  and  N_17 
REMARK    6  A    between atoms: CA_18  and  CB_19 
REMARK    7  A    between atoms: CA_18  and  C_24 
REMARK    8  A    between atoms: CB_19  and  CG_20 
REMARK    9  A    between atoms: CG_20  and  CD_21 
ROOT
ATOM      1  C   UNK d   0      61.439  71.614  99.009  0.00  0.00     0.067 A 
ATOM      2  C   UNK d   0      60.805  72.773  99.483  0.00  0.00     0.018 A 
ATOM      3  C   UNK d   0      59.502  72.746  99.981  0.00  0.00     0.006 A 
ATOM      4  C   UNK d   0      58.786  71.552  99.973  0.00  0.00     0.058 A 
ATOM      5  C   UNK d   0      59.382  70.390  99.482  0.00  0.00     0.006 A 
ATOM      6  C   UNK d   0      60.695  70.425  99.012  0.00  0.00     0.018 A 
ENDROOT
BRANCH   1   7
ATOM      7  N   UNK d   0      62.767  71.642  98.519  0.00  0.00    -0.291 N 
ATOM      8  C   UNK d   0      63.875  71.088  99.290  0.00  0.00     0.140 C 
BRANCH   7   9
ATOM      9  C   UNK d   0      63.037  71.753  97.093  0.00  0.00    -0.003 C 
BRANCH   9  10
ATOM     10  C   UNK d   0      63.413  71.964  95.738  0.00  0.00     0.151 A 
ATOM     11  C   UNK d   0      64.605  71.511  95.220  0.00  0.00     0.129 A 
ATOM     12  N   UNK d   0      64.882  71.593  93.891  0.00  0.00    -0.222 NA
ATOM     13  C   UNK d   0      63.960  72.121  93.081  0.00  0.00     0.185 A 
ATOM     14  C   UNK d   0      62.752  72.587  93.614  0.00  0.00     0.149 A 
ATOM     15  N   UNK d   0      64.250  72.156  91.783  0.00  0.00    -0.194 NA
ATOM     16  N   UNK d   0      62.465  72.513  94.949  0.00  0.00    -0.229 NA
ATOM     17  C   UNK d   0      61.897  73.098  92.647  0.00  0.00     0.174 A 
ATOM     18  N   UNK d   0      62.156  73.149  91.324  0.00  0.00    -0.199 NA
ATOM     19  N   UNK d   0      60.621  73.611  93.047  0.00  0.00    -0.078 NA
ATOM     20  C   UNK d   0      63.339  72.666  90.952  0.00  0.00     0.240 A 
ATOM     21  N   UNK d   0      63.648  72.680  89.561  0.00  0.00    -0.059 NA
ENDBRANCH   9  10
ENDBRANCH   7   9
ENDBRANCH   1   7
BRANCH   4  22
ATOM     22  C   UNK d   0      57.440  71.525 100.597  0.00  0.00     0.280 C 
ATOM     23  O   UNK d   0      57.389  71.790 101.799  0.00  0.00    -0.265 OA
ATOM     24  N   GLU d   1      56.471  71.080  99.793  0.00  0.00    -0.193 NA
BRANCH  24  25
ATOM     25  CA  GLU d   1      55.405  71.915  99.599  0.00  0.00     0.190 C 
BRANCH  25  26
ATOM     26  CB  GLU d   1      55.374  72.580  98.319  0.00  0.00    -0.028 C 
BRANCH  26  27
ATOM     27  CG  GLU d   1      55.267  73.272  96.919  0.00  0.00     0.012 C 
BRANCH  27  28
ATOM     28  CD  GLU d   1      55.129  73.948  95.561  0.00  0.00     0.258 C 
ATOM     29  OE1 GLU d   1      55.709  75.070  95.397  0.00  0.00    -0.637 OA
ATOM     30  OE2 GLU d   1      54.440  73.343  94.674  0.00  0.00    -0.637 OA
ENDBRANCH  27  28
ENDBRANCH  26  27
ENDBRANCH  25  26
BRANCH  25  31
ATOM     31  C   GLU d   1      54.329  72.336 100.664  0.00  0.00     0.238 C 
ATOM     32  O   GLU d   1      53.512  71.430 101.031  0.00  0.00    -0.642 OA
ATOM     33  OXT GLU d   1      54.315  73.570 100.990  0.00  0.00    -0.642 OA
ENDBRANCH  25  31
ENDBRANCH  24  25
ENDBRANCH   4  22
TORSDOF 9
ENDMDL
MODEL 3
REMARK VINA RESULT:      -7.4     15.626     17.250
REMARK  9 active torsions:
REMARK  status: ('A' for Active; 'I' for Inactive)
REMARK    1  A    between atoms: C_5  and  C_7 
REMARK    2  A    between atoms: C_7  and  N_8 
REMARK    3  A    between atoms: N_8  and  C_9 
REMARK    4  A    between atoms: C_12  and  C_15 
REMARK       I    between atoms: C_15  and  N_17 
REMARK    5  A    between atoms: CA_18  and  N_17 
REMARK    6  A    between atoms: CA_18  and  CB_19 
REMARK    7  A    between atoms: CA_18  and  C_24 
REMARK    8  A    between atoms: CB_19  and  CG_20 
REMARK    9  A    between atoms: CG_20  and  CD_21 
ROOT
ATOM      1  C   UNK d   0      77.375  80.909  96.616  0.00  0.00     0.067 A 
ATOM      2  C   UNK d   0      78.495  80.189  96.173  0.00  0.00     0.018 A 
ATOM      3  C   UNK d   0      79.793  80.659  96.363  0.00  0.00     0.006 A 
ATOM      4  C   UNK d   0      79.996  81.897  96.970  0.00  0.00     0.058 A 
ATOM      5  C   UNK d   0      78.900  82.648  97.395  0.00  0.00     0.006 A 
ATOM      6  C   UNK d   0      77.607  82.152  97.224  0.00  0.00     0.018 A 
ENDROOT
BRANCH   1   7
ATOM      7  N   UNK d   0      76.059  80.421  96.436  0.00  0.00    -0.291 N 
ATOM      8  C   UNK d   0      75.600  79.203  97.098  0.00  0.00     0.140 C 
BRANCH   7   9
ATOM      9  C   UNK d   0      74.982  81.306  96.017  0.00  0.00    -0.003 C 
BRANCH   9  10
ATOM     10  C   UNK d   0      73.889  82.059  95.508  0.00  0.00     0.151 A 
ATOM     11  C   UNK d   0      73.107  82.864  96.306  0.00  0.00     0.129 A 
ATOM     12  N   UNK d   0      72.161  83.687  95.780  0.00  0.00    -0.222 NA
ATOM     13  C   UNK d   0      72.005  83.710  94.453  0.00  0.00     0.185 A 
ATOM     14  C   UNK d   0      72.797  82.883  93.646  0.00  0.00     0.149 A 
ATOM     15  N   UNK d   0      71.094  84.549  93.969  0.00  0.00    -0.194 NA
ATOM     16  N   UNK d   0      73.748  82.048  94.165  0.00  0.00    -0.229 NA
ATOM     17  C   UNK d   0      72.522  83.025  92.293  0.00  0.00     0.174 A 
ATOM     18  N   UNK d   0      71.608  83.866  91.766  0.00  0.00    -0.199 NA
ATOM     19  N   UNK d   0      73.257  82.241  91.347  0.00  0.00    -0.078 NA
ATOM     20  C   UNK d   0      70.929  84.599  92.646  0.00  0.00     0.240 A 
ATOM     21  N   UNK d   0      69.967  85.517  92.134  0.00  0.00    -0.059 NA
ENDBRANCH   9  10
ENDBRANCH   7   9
ENDBRANCH   1   7
BRANCH   4  22
ATOM     22  C   UNK d   0      81.386  82.332  97.250  0.00  0.00     0.280 C 
ATOM     23  O   UNK d   0      81.652  82.593  98.425  0.00  0.00    -0.265 OA
ATOM     24  N   GLU d   1      82.135  82.514  96.159  0.00  0.00    -0.193 NA
BRANCH  24  25
ATOM     25  CA  GLU d   1      83.301  81.801  96.090  0.00  0.00     0.190 C 
BRANCH  25  26
ATOM     26  CB  GLU d   1      83.243  80.611  95.277  0.00  0.00    -0.028 C 
BRANCH  26  27
ATOM     27  CG  GLU d   1      83.217  79.280  94.454  0.00  0.00     0.012 C 
BRANCH  27  28
ATOM     28  CD  GLU d   1      83.224  77.979  93.662  0.00  0.00     0.258 C 
ATOM     29  OE1 GLU d   1      82.514  77.926  92.606  0.00  0.00    -0.637 OA
ATOM     30  OE2 GLU d   1      83.943  77.026  94.110  0.00  0.00    -0.637 OA
ENDBRANCH  27  28
ENDBRANCH  26  27
ENDBRANCH  25  26
BRANCH  25  31
ATOM     31  C   GLU d   1      84.612  82.055  96.918  0.00  0.00     0.238 C 
ATOM     32  O   GLU d   1      84.844  83.261  97.255  0.00  0.00    -0.642 OA
ATOM     33  OXT GLU d   1      85.371  81.043  97.092  0.00  0.00    -0.642 OA
ENDBRANCH  25  31
ENDBRANCH  24  25
ENDBRANCH   4  22
TORSDOF 9
ENDMDL
MODEL 4
REMARK VINA RESULT:      -7.4     15.640     17.596
REMARK  9 active torsions:
REMARK  status: ('A' for Active; 'I' for Inactive)
REMARK    1  A    between atoms: C_5  and  C_7 
REMARK    2  A    between atoms: C_7  and  N_8 
REMARK    3  A    between atoms: N_8  and  C_9 
REMARK    4  A    between atoms: C_12  and  C_15 
REMARK       I    between atoms: C_15  and  N_17 
REMARK    5  A    between atoms: CA_18  and  N_17 
REMARK    6  A    between atoms: CA_18  and  CB_19 
REMARK    7  A    between atoms: CA_18  and  C_24 
REMARK    8  A    between atoms: CB_19  and  CG_20 
REMARK    9  A    between atoms: CG_20  and  CD_21 
ROOT
ATOM      1  C   UNK d   0      68.797  87.345  99.099  0.00  0.00     0.067 A 
ATOM      2  C   UNK d   0      68.540  87.813 100.396  0.00  0.00     0.018 A 
ATOM      3  C   UNK d   0      69.466  88.588 101.094  0.00  0.00     0.006 A 
ATOM      4  C   UNK d   0      70.700  88.874 100.516  0.00  0.00     0.058 A 
ATOM      5  C   UNK d   0      70.994  88.398  99.238  0.00  0.00     0.006 A 
ATOM      6  C   UNK d   0      70.047  87.648  98.539  0.00  0.00     0.018 A 
ENDROOT
BRANCH   1   7
ATOM      7  N   UNK d   0      67.848  86.572  98.387  0.00  0.00    -0.291 N 
ATOM      8  C   UNK d   0      67.255  85.371  98.966  0.00  0.00     0.140 C 
BRANCH   7   9
ATOM      9  C   UNK d   0      67.065  87.155  97.308  0.00  0.00    -0.003 C 
BRANCH   9  10
ATOM     10  C   UNK d   0      66.426  87.806  96.216  0.00  0.00     0.151 A 
ATOM     11  C   UNK d   0      65.434  87.207  95.473  0.00  0.00     0.129 A 
ATOM     12  N   UNK d   0      64.736  87.895  94.530  0.00  0.00    -0.222 NA
ATOM     13  C   UNK d   0      65.027  89.184  94.338  0.00  0.00     0.185 A 
ATOM     14  C   UNK d   0      66.043  89.787  95.091  0.00  0.00     0.149 A 
ATOM     15  N   UNK d   0      64.304  89.836  93.431  0.00  0.00    -0.194 NA
ATOM     16  N   UNK d   0      66.754  89.104  96.038  0.00  0.00    -0.229 NA
ATOM     17  C   UNK d   0      66.221  91.128  94.782  0.00  0.00     0.174 A 
ATOM     18  N   UNK d   0      65.506  91.822  93.871  0.00  0.00    -0.199 NA
ATOM     19  N   UNK d   0      67.227  91.875  95.476  0.00  0.00    -0.078 NA
ATOM     20  C   UNK d   0      64.567  91.128  93.231  0.00  0.00     0.240 A 
ATOM     21  N   UNK d   0      63.774  91.825  92.274  0.00  0.00    -0.059 NA
ENDBRANCH   9  10
ENDBRANCH   7   9
ENDBRANCH   1   7
BRANCH   4  22
ATOM     22  C   UNK d   0      71.628  89.781 101.235  0.00  0.00     0.280 C 
ATOM     23  O   UNK d   0      71.438  90.989 101.088  0.00  0.00    -0.265 OA
ATOM     24  N   GLU d   1      72.642  89.158 101.842  0.00  0.00    -0.193 NA
BRANCH  24  25
ATOM     25  CA  GLU d   1      72.778  89.378 103.186  0.00  0.00     0.190 C 
BRANCH  25  26
ATOM     26  CB  GLU d   1      71.861  88.641 104.022  0.00  0.00    -0.028 C 
BRANCH  26  27
ATOM     27  CG  GLU d   1      70.930  87.800 104.957  0.00  0.00     0.012 C 
BRANCH  27  28
ATOM     28  CD  GLU d   1      70.014  86.962 105.841  0.00  0.00     0.258 C 
ATOM     29  OE1 GLU d   1      69.091  87.567 106.476  0.00  0.00    -0.637 OA
ATOM     30  OE2 GLU d   1      70.235  85.707 105.886  0.00  0.00    -0.637 OA
ENDBRANCH  27  28
ENDBRANCH  26  27
ENDBRANCH  25  26
BRANCH  25  31
ATOM     31  C   GLU d   1      73.698  90.446 103.879  0.00  0.00     0.238 C 
ATOM     32  O   GLU d   1      74.954  90.291 103.734  0.00  0.00    -0.642 OA
ATOM     33  OXT GLU d   1      73.103  91.315 104.602  0.00  0.00    -0.642 OA
ENDBRANCH  25  31
ENDBRANCH  24  25
ENDBRANCH   4  22
TORSDOF 9
ENDMDL
MODEL 5
REMARK VINA RESULT:      -7.3     14.669     17.630
REMARK  9 active torsions:
REMARK  status: ('A' for Active; 'I' for Inactive)
REMARK    1  A    between atoms: C_5  and  C_7 
REMARK    2  A    between atoms: C_7  and  N_8 
REMARK    3  A    between atoms: N_8  and  C_9 
REMARK    4  A    between atoms: C_12  and  C_15 
REMARK       I    between atoms: C_15  and  N_17 
REMARK    5  A    between atoms: CA_18  and  N_17 
REMARK    6  A    between atoms: CA_18  and  CB_19 
REMARK    7  A    between atoms: CA_18  and  C_24 
REMARK    8  A    between atoms: CB_19  and  CG_20 
REMARK    9  A    between atoms: CG_20  and  CD_21 
ROOT
ATOM      1  C   UNK d   0      76.627  77.048  91.514  0.00  0.00     0.067 A 
ATOM      2  C   UNK d   0      77.877  76.422  91.392  0.00  0.00     0.018 A 
ATOM      3  C   UNK d   0      78.009  75.148  90.841  0.00  0.00     0.006 A 
ATOM      4  C   UNK d   0      76.874  74.450  90.437  0.00  0.00     0.058 A 
ATOM      5  C   UNK d   0      75.616  75.037  90.572  0.00  0.00     0.006 A 
ATOM      6  C   UNK d   0      75.499  76.323  91.099  0.00  0.00     0.018 A 
ENDROOT
BRANCH   1   7
ATOM      7  N   UNK d   0      76.497  78.348  92.059  0.00  0.00    -0.291 N 
ATOM      8  C   UNK d   0      75.202  79.017  92.133  0.00  0.00     0.140 C 
BRANCH   7   9
ATOM      9  C   UNK d   0      77.486  78.873  92.987  0.00  0.00    -0.003 C 
BRANCH   9  10
ATOM     10  C   UNK d   0      78.353  79.351  94.008  0.00  0.00     0.151 A 
ATOM     11  C   UNK d   0      79.662  78.939  94.123  0.00  0.00     0.129 A 
ATOM     12  N   UNK d   0      80.515  79.514  95.012  0.00  0.00    -0.222 NA
ATOM     13  C   UNK d   0      80.059  80.507  95.781  0.00  0.00     0.185 A 
ATOM     14  C   UNK d   0      78.724  80.917  95.666  0.00  0.00     0.149 A 
ATOM     15  N   UNK d   0      80.928  81.068  96.617  0.00  0.00    -0.194 NA
ATOM     16  N   UNK d   0      77.857  80.343  94.778  0.00  0.00    -0.229 NA
ATOM     17  C   UNK d   0      78.405  81.961  96.524  0.00  0.00     0.174 A 
ATOM     18  N   UNK d   0      79.259  82.556  97.382  0.00  0.00    -0.199 NA
ATOM     19  N   UNK d   0      77.072  82.485  96.515  0.00  0.00    -0.078 NA
ATOM     20  C   UNK d   0      80.499  82.071  97.385  0.00  0.00     0.240 A 
ATOM     21  N   UNK d   0      81.441  82.683  98.262  0.00  0.00    -0.059 NA
ENDBRANCH   9  10
ENDBRANCH   7   9
ENDBRANCH   1   7
BRANCH   4  22
ATOM     22  C   UNK d   0      77.048  73.139  89.764  0.00  0.00     0.280 C 
ATOM     23  O   UNK d   0      78.205  72.736  89.640  0.00  0.00    -0.265 OA
ATOM     24  N   GLU d   1      75.922  72.630  89.257  0.00  0.00    -0.193 NA
BRANCH  24  25
ATOM     25  CA  GLU d   1      75.569  71.379  89.684  0.00  0.00     0.190 C 
BRANCH  25  26
ATOM     26  CB  GLU d   1      76.143  70.291  88.929  0.00  0.00    -0.028 C 
BRANCH  26  27
ATOM     27  CG  GLU d   1      76.728  69.059  88.161  0.00  0.00     0.012 C 
BRANCH  27  28
ATOM     28  CD  GLU d   1      77.327  67.875  87.413  0.00  0.00     0.258 C 
ATOM     29  OE1 GLU d   1      77.283  66.735  87.978  0.00  0.00    -0.637 OA
ATOM     30  OE2 GLU d   1      77.834  68.106  86.265  0.00  0.00    -0.637 OA
ENDBRANCH  27  28
ENDBRANCH  26  27
ENDBRANCH  25  26
BRANCH  25  31
ATOM     31  C   GLU d   1      74.501  71.023  90.780  0.00  0.00     0.238 C 
ATOM     32  O   GLU d   1      73.510  71.815  90.884  0.00  0.00    -0.642 OA
ATOM     33  OXT GLU d   1      74.778  70.025  91.529  0.00  0.00    -0.642 OA
ENDBRANCH  25  31
ENDBRANCH  24  25
ENDBRANCH   4  22
TORSDOF 9
ENDMDL
MODEL 6
REMARK VINA RESULT:      -7.2     15.254     17.080
REMARK  9 active torsions:
REMARK  status: ('A' for Active; 'I' for Inactive)
REMARK    1  A    between atoms: C_5  and  C_7 
REMARK    2  A    between atoms: C_7  and  N_8 
REMARK    3  A    between atoms: N_8  and  C_9 
REMARK    4  A    between atoms: C_12  and  C_15 
REMARK       I    between atoms: C_15  and  N_17 
REMARK    5  A    between atoms: CA_18  and  N_17 
REMARK    6  A    between atoms: CA_18  and  CB_19 
REMARK    7  A    between atoms: CA_18  and  C_24 
REMARK    8  A    between atoms: CB_19  and  CG_20 
REMARK    9  A    between atoms: CG_20  and  CD_21 
ROOT
ATOM      1  C   UNK d   0      68.931  86.372  98.327  0.00  0.00     0.067 A 
ATOM      2  C   UNK d   0      68.258  87.451  98.920  0.00  0.00     0.018 A 
ATOM      3  C   UNK d   0      68.160  87.584 100.305  0.00  0.00     0.006 A 
ATOM      4  C   UNK d   0      68.703  86.603 101.131  0.00  0.00     0.058 A 
ATOM      5  C   UNK d   0      69.353  85.504 100.568  0.00  0.00     0.006 A 
ATOM      6  C   UNK d   0      69.468  85.398  99.182  0.00  0.00     0.018 A 
ENDROOT
BRANCH   1   7
ATOM      7  N   UNK d   0      69.042  86.249  96.921  0.00  0.00    -0.291 N 
ATOM      8  C   UNK d   0      69.451  84.995  96.296  0.00  0.00     0.140 C 
BRANCH   7   9
ATOM      9  C   UNK d   0      68.316  87.142  96.031  0.00  0.00    -0.003 C 
BRANCH   9  10
ATOM     10  C   UNK d   0      67.551  87.887  95.092  0.00  0.00     0.151 A 
ATOM     11  C   UNK d   0      67.150  87.367  93.882  0.00  0.00     0.129 A 
ATOM     12  N   UNK d   0      66.299  88.041  93.063  0.00  0.00    -0.222 NA
ATOM     13  C   UNK d   0      65.843  89.232  93.461  0.00  0.00     0.185 A 
ATOM     14  C   UNK d   0      66.260  89.760  94.689  0.00  0.00     0.149 A 
ATOM     15  N   UNK d   0      64.987  89.849  92.651  0.00  0.00    -0.194 NA
ATOM     16  N   UNK d   0      67.118  89.093  95.518  0.00  0.00    -0.229 NA
ATOM     17  C   UNK d   0      65.694  90.998  94.964  0.00  0.00     0.174 A 
ATOM     18  N   UNK d   0      64.823  91.652  94.169  0.00  0.00    -0.199 NA
ATOM     19  N   UNK d   0      66.029  91.660  96.189  0.00  0.00    -0.078 NA
ATOM     20  C   UNK d   0      64.507  91.033  93.033  0.00  0.00     0.240 A 
ATOM     21  N   UNK d   0      63.574  91.679  92.171  0.00  0.00    -0.059 NA
ENDBRANCH   9  10
ENDBRANCH   7   9
ENDBRANCH   1   7
BRANCH   4  22
ATOM     22  C   UNK d   0      68.673  86.814 102.599  0.00  0.00     0.280 C 
ATOM     23  O   UNK d   0      69.176  85.926 103.291  0.00  0.00    -0.265 OA
ATOM     24  N   GLU d   1      67.976  87.885 102.986  0.00  0.00    -0.193 NA
BRANCH  24  25
ATOM     25  CA  GLU d   1      68.643  88.807 103.747  0.00  0.00     0.190 C 
BRANCH  25  26
ATOM     26  CB  GLU d   1      69.999  89.074 103.335  0.00  0.00    -0.028 C 
BRANCH  26  27
ATOM     27  CG  GLU d   1      71.495  89.351 102.964  0.00  0.00     0.012 C 
BRANCH  27  28
ATOM     28  CD  GLU d   1      72.941  89.622 102.572  0.00  0.00     0.258 C 
ATOM     29  OE1 GLU d   1      73.301  89.314 101.389  0.00  0.00    -0.637 OA
ATOM     30  OE2 GLU d   1      73.699  90.142 103.457  0.00  0.00    -0.637 OA
ENDBRANCH  27  28
ENDBRANCH  26  27
ENDBRANCH  25  26
BRANCH  25  31
ATOM     31  C   GLU d   1      68.145  89.463 105.085  0.00  0.00     0.238 C 
ATOM     32  O   GLU d   1      67.086  88.974 105.595  0.00  0.00    -0.642 OA
ATOM     33  OXT GLU d   1      68.794  90.488 105.482  0.00  0.00    -0.642 OA
ENDBRANCH  25  31
ENDBRANCH  24  25
ENDBRANCH   4  22
TORSDOF 9
ENDMDL
MODEL 7
REMARK VINA RESULT:      -7.2     16.507     20.318
REMARK  9 active torsions:
REMARK  status: ('A' for Active; 'I' for Inactive)
REMARK    1  A    between atoms: C_5  and  C_7 
REMARK    2  A    between atoms: C_7  and  N_8 
REMARK    3  A    between atoms: N_8  and  C_9 
REMARK    4  A    between atoms: C_12  and  C_15 
REMARK       I    between atoms: C_15  and  N_17 
REMARK    5  A    between atoms: CA_18  and  N_17 
REMARK    6  A    between atoms: CA_18  and  CB_19 
REMARK    7  A    between atoms: CA_18  and  C_24 
REMARK    8  A    between atoms: CB_19  and  CG_20 
REMARK    9  A    between atoms: CG_20  and  CD_21 
ROOT
ATOM      1  C   UNK d   0      60.066  85.779  89.891  0.00  0.00     0.067 A 
ATOM      2  C   UNK d   0      60.173  84.516  90.492  0.00  0.00     0.018 A 
ATOM      3  C   UNK d   0      59.183  83.546  90.345  0.00  0.00     0.006 A 
ATOM      4  C   UNK d   0      58.031  83.841  89.619  0.00  0.00     0.058 A 
ATOM      5  C   UNK d   0      57.885  85.098  89.033  0.00  0.00     0.006 A 
ATOM      6  C   UNK d   0      58.896  86.050  89.165  0.00  0.00     0.018 A 
ENDROOT
BRANCH   1   7
ATOM      7  N   UNK d   0      61.081  86.756  90.029  0.00  0.00    -0.291 N 
ATOM      8  C   UNK d   0      61.456  87.628  88.920  0.00  0.00     0.140 C 
BRANCH   7   9
ATOM      9  C   UNK d   0      61.445  87.278  91.337  0.00  0.00    -0.003 C 
BRANCH   9  10
ATOM     10  C   UNK d   0      61.787  87.929  92.555  0.00  0.00     0.151 A 
ATOM     11  C   UNK d   0      61.834  87.269  93.762  0.00  0.00     0.129 A 
ATOM     12  N   UNK d   0      62.303  87.872  94.886  0.00  0.00    -0.222 NA
ATOM     13  C   UNK d   0      62.731  89.135  94.800  0.00  0.00     0.185 A 
ATOM     14  C   UNK d   0      62.673  89.805  93.572  0.00  0.00     0.149 A 
ATOM     15  N   UNK d   0      63.213  89.684  95.912  0.00  0.00    -0.194 NA
ATOM     16  N   UNK d   0      62.200  89.210  92.435  0.00  0.00    -0.229 NA
ATOM     17  C   UNK d   0      63.160  91.103  93.642  0.00  0.00     0.174 A 
ATOM     18  N   UNK d   0      63.657  91.692  94.749  0.00  0.00    -0.199 NA
ATOM     19  N   UNK d   0      63.164  91.910  92.458  0.00  0.00    -0.078 NA
ATOM     20  C   UNK d   0      63.660  90.939  95.847  0.00  0.00     0.240 A 
ATOM     21  N   UNK d   0      64.194  91.514  97.036  0.00  0.00    -0.059 NA
ENDBRANCH   9  10
ENDBRANCH   7   9
ENDBRANCH   1   7
BRANCH   4  22
ATOM     22  C   UNK d   0      57.038  82.763  89.393  0.00  0.00     0.280 C 
ATOM     23  O   UNK d   0      56.522  82.273  90.400  0.00  0.00    -0.265 OA
ATOM     24  N   GLU d   1      56.934  82.370  88.121  0.00  0.00    -0.193 NA
BRANCH  24  25
ATOM     25  CA  GLU d   1      55.689  82.438  87.558  0.00  0.00     0.190 C 
BRANCH  25  26
ATOM     26  CB  GLU d   1      55.260  83.763  87.180  0.00  0.00    -0.028 C 
BRANCH  26  27
ATOM     27  CG  GLU d   1      54.867  85.211  86.734  0.00  0.00     0.012 C 
BRANCH  27  28
ATOM     28  CD  GLU d   1      54.454  86.609  86.291  0.00  0.00     0.258 C 
ATOM     29  OE1 GLU d   1      53.697  86.707  85.272  0.00  0.00    -0.637 OA
ATOM     30  OE2 GLU d   1      54.896  87.592  86.973  0.00  0.00    -0.637 OA
ENDBRANCH  27  28
ENDBRANCH  26  27
ENDBRANCH  25  26
BRANCH  25  31
ATOM     31  C   GLU d   1      54.643  81.272  87.438  0.00  0.00     0.238 C 
ATOM     32  O   GLU d   1      55.072  80.099  87.689  0.00  0.00    -0.642 OA
ATOM     33  OXT GLU d   1      53.486  81.598  87.005  0.00  0.00    -0.642 OA
ENDBRANCH  25  31
ENDBRANCH  24  25
ENDBRANCH   4  22
TORSDOF 9
ENDMDL
MODEL 8
REMARK VINA RESULT:      -7.1      8.691     12.172
REMARK  9 active torsions:
REMARK  status: ('A' for Active; 'I' for Inactive)
REMARK    1  A    between atoms: C_5  and  C_7 
REMARK    2  A    between atoms: C_7  and  N_8 
REMARK    3  A    between atoms: N_8  and  C_9 
REMARK    4  A    between atoms: C_12  and  C_15 
REMARK       I    between atoms: C_15  and  N_17 
REMARK    5  A    between atoms: CA_18  and  N_17 
REMARK    6  A    between atoms: CA_18  and  CB_19 
REMARK    7  A    between atoms: CA_18  and  C_24 
REMARK    8  A    between atoms: CB_19  and  CG_20 
REMARK    9  A    between atoms: CG_20  and  CD_21 
ROOT
ATOM      1  C   UNK d   0      58.863  76.518  92.532  0.00  0.00     0.067 A 
ATOM      2  C   UNK d   0      59.967  76.785  91.709  0.00  0.00     0.018 A 
ATOM      3  C   UNK d   0      61.034  75.894  91.599  0.00  0.00     0.006 A 
ATOM      4  C   UNK d   0      61.036  74.724  92.354  0.00  0.00     0.058 A 
ATOM      5  C   UNK d   0      59.963  74.445  93.202  0.00  0.00     0.006 A 
ATOM      6  C   UNK d   0      58.890  75.332  93.282  0.00  0.00     0.018 A 
ENDROOT
BRANCH   1   7
ATOM      7  N   UNK d   0      57.774  77.417  92.630  0.00  0.00    -0.291 N 
ATOM      8  C   UNK d   0      56.955  77.495  93.836  0.00  0.00     0.140 C 
BRANCH   7   9
ATOM      9  C   UNK d   0      57.708  78.607  91.795  0.00  0.00    -0.003 C 
BRANCH   9  10
ATOM     10  C   UNK d   0      57.635  79.852  91.111  0.00  0.00     0.151 A 
ATOM     11  C   UNK d   0      58.487  80.899  91.383  0.00  0.00     0.129 A 
ATOM     12  N   UNK d   0      58.498  82.025  90.622  0.00  0.00    -0.222 NA
ATOM     13  C   UNK d   0      57.662  82.099  89.583  0.00  0.00     0.185 A 
ATOM     14  C   UNK d   0      56.791  81.034  89.315  0.00  0.00     0.149 A 
ATOM     15  N   UNK d   0      57.721  83.201  88.840  0.00  0.00    -0.194 NA
ATOM     16  N   UNK d   0      56.769  79.899  90.076  0.00  0.00    -0.229 NA
ATOM     17  C   UNK d   0      55.993  81.257  88.202  0.00  0.00     0.174 A 
ATOM     18  N   UNK d   0      56.026  82.360  87.424  0.00  0.00    -0.199 NA
ATOM     19  N   UNK d   0      55.053  80.251  87.806  0.00  0.00    -0.078 NA
ATOM     20  C   UNK d   0      56.905  83.291  87.789  0.00  0.00     0.240 A 
ATOM     21  N   UNK d   0      56.989  84.465  86.985  0.00  0.00    -0.059 NA
ENDBRANCH   9  10
ENDBRANCH   7   9
ENDBRANCH   1   7
BRANCH   4  22
ATOM     22  C   UNK d   0      62.131  73.745  92.147  0.00  0.00     0.280 C 
ATOM     23  O   UNK d   0      61.962  72.915  91.252  0.00  0.00    -0.265 OA
ATOM     24  N   GLU d   1      63.105  73.812  93.058  0.00  0.00    -0.193 NA
BRANCH  24  25
ATOM     25  CA  GLU d   1      64.374  74.012  92.585  0.00  0.00     0.190 C 
BRANCH  25  26
ATOM     26  CB  GLU d   1      64.474  74.923  91.471  0.00  0.00    -0.028 C 
BRANCH  26  27
ATOM     27  CG  GLU d   1      64.503  75.903  90.251  0.00  0.00     0.012 C 
BRANCH  27  28
ATOM     28  CD  GLU d   1      64.536  76.831  89.043  0.00  0.00     0.258 C 
ATOM     29  OE1 GLU d   1      63.926  76.453  87.991  0.00  0.00    -0.637 OA
ATOM     30  OE2 GLU d   1      65.175  77.928  89.167  0.00  0.00    -0.637 OA
ENDBRANCH  27  28
ENDBRANCH  26  27
ENDBRANCH  25  26
BRANCH  25  31
ATOM     31  C   GLU d   1      65.674  73.243  93.018  0.00  0.00     0.238 C 
ATOM     32  O   GLU d   1      65.568  71.981  93.150  0.00  0.00    -0.642 OA
ATOM     33  OXT GLU d   1      66.689  73.969  93.290  0.00  0.00    -0.642 OA
ENDBRANCH  25  31
ENDBRANCH  24  25
ENDBRANCH   4  22
TORSDOF 9
ENDMDL
MODEL 9
REMARK VINA RESULT:      -7.1     15.689     17.477
REMARK  9 active torsions:
REMARK  status: ('A' for Active; 'I' for Inactive)
REMARK    1  A    between atoms: C_5  and  C_7 
REMARK    2  A    between atoms: C_7  and  N_8 
REMARK    3  A    between atoms: N_8  and  C_9 
REMARK    4  A    between atoms: C_12  and  C_15 
REMARK       I    between atoms: C_15  and  N_17 
REMARK    5  A    between atoms: CA_18  and  N_17 
REMARK    6  A    between atoms: CA_18  and  CB_19 
REMARK    7  A    between atoms: CA_18  and  C_24 
REMARK    8  A    between atoms: CB_19  and  CG_20 
REMARK    9  A    between atoms: CG_20  and  CD_21 
ROOT
ATOM      1  C   UNK d   0      79.160  77.837  93.661  0.00  0.00     0.067 A 
ATOM      2  C   UNK d   0      80.458  77.439  93.304  0.00  0.00     0.018 A 
ATOM      3  C   UNK d   0      81.552  78.292  93.445  0.00  0.00     0.006 A 
ATOM      4  C   UNK d   0      81.359  79.590  93.910  0.00  0.00     0.058 A 
ATOM      5  C   UNK d   0      80.076  80.022  94.246  0.00  0.00     0.006 A 
ATOM      6  C   UNK d   0      78.993  79.150  94.126  0.00  0.00     0.018 A 
ENDROOT
BRANCH   1   7
ATOM      7  N   UNK d   0      78.053  76.963  93.532  0.00  0.00    -0.291 N 
ATOM      8  C   UNK d   0      76.810  77.197  94.259  0.00  0.00     0.140 C 
BRANCH   7   9
ATOM      9  C   UNK d   0      77.900  76.116  92.358  0.00  0.00    -0.003 C 
BRANCH   9  10
ATOM     10  C   UNK d   0      77.724  75.171  91.310  0.00  0.00     0.151 A 
ATOM     11  C   UNK d   0      78.670  74.964  90.332  0.00  0.00     0.129 A 
ATOM     12  N   UNK d   0      78.550  73.958  89.426  0.00  0.00    -0.222 NA
ATOM     13  C   UNK d   0      77.485  73.154  89.505  0.00  0.00     0.185 A 
ATOM     14  C   UNK d   0      76.521  73.375  90.497  0.00  0.00     0.149 A 
ATOM     15  N   UNK d   0      77.414  72.161  88.623  0.00  0.00    -0.194 NA
ATOM     16  N   UNK d   0      76.630  74.386  91.410  0.00  0.00    -0.229 NA
ATOM     17  C   UNK d   0      75.483  72.455  90.454  0.00  0.00     0.174 A 
ATOM     18  N   UNK d   0      75.378  71.435  89.577  0.00  0.00    -0.199 NA
ATOM     19  N   UNK d   0      74.422  72.557  91.411  0.00  0.00    -0.078 NA
ATOM     20  C   UNK d   0      76.368  71.337  88.691  0.00  0.00     0.240 A 
ATOM     21  N   UNK d   0      76.310  70.262  87.757  0.00  0.00    -0.059 NA
ENDBRANCH   9  10
ENDBRANCH   7   9
ENDBRANCH   1   7
BRANCH   4  22
ATOM     22  C   UNK d   0      82.548  80.445  94.145  0.00  0.00     0.280 C 
ATOM     23  O   UNK d   0      82.848  81.227  93.240  0.00  0.00    -0.265 OA
ATOM     24  N   GLU d   1      83.221  80.154  95.261  0.00  0.00    -0.193 NA
BRANCH  24  25
ATOM     25  CA  GLU d   1      83.396  81.176  96.154  0.00  0.00     0.190 C 
BRANCH  25  26
ATOM     26  CB  GLU d   1      82.179  81.782  96.636  0.00  0.00    -0.028 C 
BRANCH  26  27
ATOM     27  CG  GLU d   1      80.817  82.389  97.110  0.00  0.00     0.012 C 
BRANCH  27  28
ATOM     28  CD  GLU d   1      79.501  82.977  97.604  0.00  0.00     0.258 C 
ATOM     29  OE1 GLU d   1      78.479  82.217  97.608  0.00  0.00    -0.637 OA
ATOM     30  OE2 GLU d   1      79.511  84.195  97.982  0.00  0.00    -0.637 OA
ENDBRANCH  27  28
ENDBRANCH  26  27
ENDBRANCH  25  26
BRANCH  25  31
ATOM     31  C   GLU d   1      84.757  81.842  96.570  0.00  0.00     0.238 C 
ATOM     32  O   GLU d   1      85.816  81.197  96.279  0.00  0.00    -0.642 OA
ATOM     33  OXT GLU d   1      84.669  82.921  97.248  0.00  0.00    -0.642 OA
ENDBRANCH  25  31
ENDBRANCH  24  25
ENDBRANCH   4  22
TORSDOF 9
ENDMDL
MODEL 10
REMARK VINA RESULT:      -7.1     15.551     17.513
REMARK  9 active torsions:
REMARK  status: ('A' for Active; 'I' for Inactive)
REMARK    1  A    between atoms: C_5  and  C_7 
REMARK    2  A    between atoms: C_7  and  N_8 
REMARK    3  A    between atoms: N_8  and  C_9 
REMARK    4  A    between atoms: C_12  and  C_15 
REMARK       I    between atoms: C_15  and  N_17 
REMARK    5  A    between atoms: CA_18  and  N_17 
REMARK    6  A    between atoms: CA_18  and  CB_19 
REMARK    7  A    between atoms: CA_18  and  C_24 
REMARK    8  A    between atoms: CB_19  and  CG_20 
REMARK    9  A    between atoms: CG_20  and  CD_21 
ROOT
ATOM      1  C   UNK d   0      68.689  86.359  98.585  0.00  0.00     0.067 A 
ATOM      2  C   UNK d   0      68.756  87.735  98.854  0.00  0.00     0.018 A 
ATOM      3  C   UNK d   0      69.686  88.264  99.748  0.00  0.00     0.006 A 
ATOM      4  C   UNK d   0      70.548  87.410 100.431  0.00  0.00     0.058 A 
ATOM      5  C   UNK d   0      70.485  86.035 100.204  0.00  0.00     0.006 A 
ATOM      6  C   UNK d   0      69.568  85.522  99.287  0.00  0.00     0.018 A 
ENDROOT
BRANCH   1   7
ATOM      7  N   UNK d   0      67.754  85.827  97.665  0.00  0.00    -0.291 N 
ATOM      8  C   UNK d   0      67.165  84.505  97.855  0.00  0.00     0.140 C 
BRANCH   7   9
ATOM      9  C   UNK d   0      66.976  86.699  96.797  0.00  0.00    -0.003 C 
BRANCH   9  10
ATOM     10  C   UNK d   0      66.206  87.431  95.852  0.00  0.00     0.151 A 
ATOM     11  C   UNK d   0      65.159  86.871  95.156  0.00  0.00     0.129 A 
ATOM     12  N   UNK d   0      64.344  87.623  94.368  0.00  0.00    -0.222 NA
ATOM     13  C   UNK d   0      64.574  88.936  94.284  0.00  0.00     0.185 A 
ATOM     14  C   UNK d   0      65.645  89.500  94.988  0.00  0.00     0.149 A 
ATOM     15  N   UNK d   0      63.739  89.646  93.530  0.00  0.00    -0.194 NA
ATOM     16  N   UNK d   0      66.473  88.753  95.780  0.00  0.00    -0.229 NA
ATOM     17  C   UNK d   0      65.749  90.872  94.807  0.00  0.00     0.174 A 
ATOM     18  N   UNK d   0      64.921  91.624  94.053  0.00  0.00    -0.199 NA
ATOM     19  N   UNK d   0      66.800  91.585  95.469  0.00  0.00    -0.078 NA
ATOM     20  C   UNK d   0      63.940  90.962  93.443  0.00  0.00     0.240 A 
ATOM     21  N   UNK d   0      63.029  91.719  92.651  0.00  0.00    -0.059 NA
ENDBRANCH   9  10
ENDBRANCH   7   9
ENDBRANCH   1   7
BRANCH   4  22
ATOM     22  C   UNK d   0      71.593  88.002 101.301  0.00  0.00     0.280 C 
ATOM     23  O   UNK d   0      72.533  88.558 100.729  0.00  0.00    -0.265 OA
ATOM     24  N   GLU d   1      71.443  87.733 102.601  0.00  0.00    -0.193 NA
BRANCH  24  25
ATOM     25  CA  GLU d   1      71.367  88.807 103.445  0.00  0.00     0.190 C 
BRANCH  25  26
ATOM     26  CB  GLU d   1      72.609  89.513 103.648  0.00  0.00    -0.028 C 
BRANCH  26  27
ATOM     27  CG  GLU d   1      73.914  90.338 103.904  0.00  0.00     0.012 C 
BRANCH  27  28
ATOM     28  CD  GLU d   1      75.171  91.154 104.181  0.00  0.00     0.258 C 
ATOM     29  OE1 GLU d   1      76.149  91.025 103.376  0.00  0.00    -0.637 OA
ATOM     30  OE2 GLU d   1      75.158  91.916 105.205  0.00  0.00    -0.637 OA
ENDBRANCH  27  28
ENDBRANCH  26  27
ENDBRANCH  25  26
BRANCH  25  31
ATOM     31  C   GLU d   1      70.133  89.237 104.317  0.00  0.00     0.238 C 
ATOM     32  O   GLU d   1      69.403  90.167 103.845  0.00  0.00    -0.642 OA
ATOM     33  OXT GLU d   1      70.035  88.679 105.462  0.00  0.00    -0.642 OA
ENDBRANCH  25  31
ENDBRANCH  24  25
ENDBRANCH   4  22
TORSDOF 9
ENDMDL
MODEL 11
REMARK VINA RESULT:      -7.1     15.351     17.080
REMARK  9 active torsions:
REMARK  status: ('A' for Active; 'I' for Inactive)
REMARK    1  A    between atoms: C_5  and  C_7 
REMARK    2  A    between atoms: C_7  and  N_8 
REMARK    3  A    between atoms: N_8  and  C_9 
REMARK    4  A    between atoms: C_12  and  C_15 
REMARK       I    between atoms: C_15  and  N_17 
REMARK    5  A    between atoms: CA_18  and  N_17 
REMARK    6  A    between atoms: CA_18  and  CB_19 
REMARK    7  A    between atoms: CA_18  and  C_24 
REMARK    8  A    between atoms: CB_19  and  CG_20 
REMARK    9  A    between atoms: CG_20  and  CD_21 
ROOT
ATOM      1  C   UNK d   0      80.319  77.011  92.803  0.00  0.00     0.067 A 
ATOM      2  C   UNK d   0      81.374  77.694  93.426  0.00  0.00     0.018 A 
ATOM      3  C   UNK d   0      81.148  78.639  94.426  0.00  0.00     0.006 A 
ATOM      4  C   UNK d   0      79.842  78.954  94.795  0.00  0.00     0.058 A 
ATOM      5  C   UNK d   0      78.772  78.310  94.172  0.00  0.00     0.006 A 
ATOM      6  C   UNK d   0      79.014  77.347  93.192  0.00  0.00     0.018 A 
ENDROOT
BRANCH   1   7
ATOM      7  N   UNK d   0      80.553  76.040  91.799  0.00  0.00    -0.291 N 
ATOM      8  C   UNK d   0      81.853  75.392  91.654  0.00  0.00     0.140 C 
BRANCH   7   9
ATOM      9  C   UNK d   0      79.453  75.294  91.208  0.00  0.00    -0.003 C 
BRANCH   9  10
ATOM     10  C   UNK d   0      78.425  74.444  90.714  0.00  0.00     0.151 A 
ATOM     11  C   UNK d   0      78.514  73.798  89.502  0.00  0.00     0.129 A 
ATOM     12  N   UNK d   0      77.591  72.878  89.114  0.00  0.00    -0.222 NA
ATOM     13  C   UNK d   0      76.583  72.599  89.945  0.00  0.00     0.185 A 
ATOM     14  C   UNK d   0      76.492  73.264  91.174  0.00  0.00     0.149 A 
ATOM     15  N   UNK d   0      75.716  71.671  89.549  0.00  0.00    -0.194 NA
ATOM     16  N   UNK d   0      77.412  74.194  91.572  0.00  0.00    -0.229 NA
ATOM     17  C   UNK d   0      75.398  72.861  91.926  0.00  0.00     0.174 A 
ATOM     18  N   UNK d   0      74.500  71.923  91.559  0.00  0.00    -0.199 NA
ATOM     19  N   UNK d   0      75.177  73.456  93.210  0.00  0.00    -0.078 NA
ATOM     20  C   UNK d   0      74.709  71.365  90.368  0.00  0.00     0.240 A 
ATOM     21  N   UNK d   0      73.797  70.355  89.946  0.00  0.00    -0.059 NA
ENDBRANCH   9  10
ENDBRANCH   7   9
ENDBRANCH   1   7
BRANCH   4  22
ATOM     22  C   UNK d   0      79.628  79.888  95.927  0.00  0.00     0.280 C 
ATOM     23  O   UNK d   0      79.058  79.428  96.917  0.00  0.00    -0.265 OA
ATOM     24  N   GLU d   1      79.965  81.154  95.665  0.00  0.00    -0.193 NA
BRANCH  24  25
ATOM     25  CA  GLU d   1      80.881  81.730  96.503  0.00  0.00     0.190 C 
BRANCH  25  26
ATOM     26  CB  GLU d   1      82.260  81.446  96.190  0.00  0.00    -0.028 C 
BRANCH  26  27
ATOM     27  CG  GLU d   1      83.738  81.059  95.848  0.00  0.00     0.012 C 
BRANCH  27  28
ATOM     28  CD  GLU d   1      85.186  80.699  95.541  0.00  0.00     0.258 C 
ATOM     29  OE1 GLU d   1      85.858  80.124  96.457  0.00  0.00    -0.637 OA
ATOM     30  OE2 GLU d   1      85.630  80.998  94.384  0.00  0.00    -0.637 OA
ENDBRANCH  27  28
ENDBRANCH  26  27
ENDBRANCH  25  26
BRANCH  25  31
ATOM     31  C   GLU d   1      80.581  82.513  97.832  0.00  0.00     0.238 C 
ATOM     32  O   GLU d   1      80.716  81.859  98.917  0.00  0.00    -0.642 OA
ATOM     33  OXT GLU d   1      80.137  83.702  97.694  0.00  0.00    -0.642 OA
ENDBRANCH  25  31
ENDBRANCH  24  25
ENDBRANCH   4  22
TORSDOF 9
ENDMDL
MODEL 12
REMARK VINA RESULT:      -7.1     14.592     17.199
REMARK  9 active torsions:
REMARK  status: ('A' for Active; 'I' for Inactive)
REMARK    1  A    between atoms: C_5  and  C_7 
REMARK    2  A    between atoms: C_7  and  N_8 
REMARK    3  A    between atoms: N_8  and  C_9 
REMARK    4  A    between atoms: C_12  and  C_15 
REMARK       I    between atoms: C_15  and  N_17 
REMARK    5  A    between atoms: CA_18  and  N_17 
REMARK    6  A    between atoms: CA_18  and  CB_19 
REMARK    7  A    between atoms: CA_18  and  C_24 
REMARK    8  A    between atoms: CB_19  and  CG_20 
REMARK    9  A    between atoms: CG_20  and  CD_21 
ROOT
ATOM      1  C   UNK d   0      75.767  70.290  88.691  0.00  0.00     0.067 A 
ATOM      2  C   UNK d   0      76.330  71.568  88.555  0.00  0.00     0.018 A 
ATOM      3  C   UNK d   0      75.983  72.617  89.405  0.00  0.00     0.006 A 
ATOM      4  C   UNK d   0      75.022  72.416  90.393  0.00  0.00     0.058 A 
ATOM      5  C   UNK d   0      74.425  71.162  90.533  0.00  0.00     0.006 A 
ATOM      6  C   UNK d   0      74.801  70.114  89.693  0.00  0.00     0.018 A 
ENDROOT
BRANCH   1   7
ATOM      7  N   UNK d   0      76.133  69.222  87.836  0.00  0.00    -0.291 N 
ATOM      8  C   UNK d   0      76.235  69.404  86.391  0.00  0.00     0.140 C 
BRANCH   7   9
ATOM      9  C   UNK d   0      76.879  68.080  88.341  0.00  0.00    -0.003 C 
BRANCH   9  10
ATOM     10  C   UNK d   0      77.720  67.002  88.734  0.00  0.00     0.151 A 
ATOM     11  C   UNK d   0      77.580  65.729  88.229  0.00  0.00     0.129 A 
ATOM     12  N   UNK d   0      78.481  64.750  88.505  0.00  0.00    -0.222 NA
ATOM     13  C   UNK d   0      79.528  65.048  89.280  0.00  0.00     0.185 A 
ATOM     14  C   UNK d   0      79.662  66.342  89.798  0.00  0.00     0.149 A 
ATOM     15  N   UNK d   0      80.407  64.075  89.504  0.00  0.00    -0.194 NA
ATOM     16  N   UNK d   0      78.759  67.334  89.531  0.00  0.00    -0.229 NA
ATOM     17  C   UNK d   0      80.801  66.497  90.576  0.00  0.00     0.174 A 
ATOM     18  N   UNK d   0      81.715  65.536  90.823  0.00  0.00    -0.199 NA
ATOM     19  N   UNK d   0      81.069  67.772  91.172  0.00  0.00    -0.078 NA
ATOM     20  C   UNK d   0      81.468  64.353  90.264  0.00  0.00     0.240 A 
ATOM     21  N   UNK d   0      82.417  63.313  90.481  0.00  0.00    -0.059 NA
ENDBRANCH   9  10
ENDBRANCH   7   9
ENDBRANCH   1   7
BRANCH   4  22
ATOM     22  C   UNK d   0      74.742  73.516  91.347  0.00  0.00     0.280 C 
ATOM     23  O   UNK d   0      74.788  73.228  92.545  0.00  0.00    -0.265 OA
ATOM     24  N   GLU d   1      74.338  74.651  90.772  0.00  0.00    -0.193 NA
BRANCH  24  25
ATOM     25  CA  GLU d   1      75.072  75.772  91.049  0.00  0.00     0.190 C 
BRANCH  25  26
ATOM     26  CB  GLU d   1      76.458  75.709  90.651  0.00  0.00    -0.028 C 
BRANCH  26  27
ATOM     27  CG  GLU d   1      77.973  75.588  90.280  0.00  0.00     0.012 C 
BRANCH  27  28
ATOM     28  CD  GLU d   1      79.444  75.492  89.894  0.00  0.00     0.258 C 
ATOM     29  OE1 GLU d   1      79.726  74.974  88.765  0.00  0.00    -0.637 OA
ATOM     30  OE2 GLU d   1      80.298  75.938  90.730  0.00  0.00    -0.637 OA
ENDBRANCH  27  28
ENDBRANCH  26  27
ENDBRANCH  25  26
BRANCH  25  31
ATOM     31  C   GLU d   1      74.609  77.022  91.881  0.00  0.00     0.238 C 
ATOM     32  O   GLU d   1      74.614  76.892  93.148  0.00  0.00    -0.642 OA
ATOM     33  OXT GLU d   1      74.179  78.017  91.206  0.00  0.00    -0.642 OA
ENDBRANCH  25  31
ENDBRANCH  24  25
ENDBRANCH   4  22
TORSDOF 9
ENDMDL
MODEL 13
REMARK VINA RESULT:      -7.0     13.367     15.902
REMARK  9 active torsions:
REMARK  status: ('A' for Active; 'I' for Inactive)
REMARK    1  A    between atoms: C_5  and  C_7 
REMARK    2  A    between atoms: C_7  and  N_8 
REMARK    3  A    between atoms: N_8  and  C_9 
REMARK    4  A    between atoms: C_12  and  C_15 
REMARK       I    between atoms: C_15  and  N_17 
REMARK    5  A    between atoms: CA_18  and  N_17 
REMARK    6  A    between atoms: CA_18  and  CB_19 
REMARK    7  A    between atoms: CA_18  and  C_24 
REMARK    8  A    between atoms: CB_19  and  CG_20 
REMARK    9  A    between atoms: CG_20  and  CD_21 
ROOT
ATOM      1  C   UNK d   0      73.880  75.648  91.180  0.00  0.00     0.067 A 
ATOM      2  C   UNK d   0      73.409  74.336  91.335  0.00  0.00     0.018 A 
ATOM      3  C   UNK d   0      74.181  73.231  90.979  0.00  0.00     0.006 A 
ATOM      4  C   UNK d   0      75.439  73.423  90.413  0.00  0.00     0.058 A 
ATOM      5  C   UNK d   0      75.923  74.717  90.221  0.00  0.00     0.006 A 
ATOM      6  C   UNK d   0      75.150  75.813  90.607  0.00  0.00     0.018 A 
ENDROOT
BRANCH   1   7
ATOM      7  N   UNK d   0      73.100  76.767  91.557  0.00  0.00    -0.291 N 
ATOM      8  C   UNK d   0      71.727  76.614  92.028  0.00  0.00     0.140 C 
BRANCH   7   9
ATOM      9  C   UNK d   0      73.727  78.016  91.963  0.00  0.00    -0.003 C 
BRANCH   9  10
ATOM     10  C   UNK d   0      74.446  79.208  92.251  0.00  0.00     0.151 A 
ATOM     11  C   UNK d   0      75.784  79.356  91.961  0.00  0.00     0.129 A 
ATOM     12  N   UNK d   0      76.418  80.550  92.109  0.00  0.00    -0.222 NA
ATOM     13  C   UNK d   0      75.709  81.598  92.539  0.00  0.00     0.185 A 
ATOM     14  C   UNK d   0      74.350  81.440  92.840  0.00  0.00     0.149 A 
ATOM     15  N   UNK d   0      76.352  82.758  92.641  0.00  0.00    -0.194 NA
ATOM     16  N   UNK d   0      73.704  80.244  92.700  0.00  0.00    -0.229 NA
ATOM     17  C   UNK d   0      73.752  82.618  93.266  0.00  0.00     0.174 A 
ATOM     18  N   UNK d   0      74.371  83.812  93.380  0.00  0.00    -0.199 NA
ATOM     19  N   UNK d   0      72.361  82.608  93.609  0.00  0.00    -0.078 NA
ATOM     20  C   UNK d   0      75.662  83.821  93.055  0.00  0.00     0.240 A 
ATOM     21  N   UNK d   0      76.352  85.065  93.142  0.00  0.00    -0.059 NA
ENDBRANCH   9  10
ENDBRANCH   7   9
ENDBRANCH   1   7
BRANCH   4  22
ATOM     22  C   UNK d   0      76.282  72.235  90.134  0.00  0.00     0.280 C 
ATOM     23  O   UNK d   0      77.372  72.189  90.707  0.00  0.00    -0.265 OA
ATOM     24  N   GLU d   1      75.800  71.431  89.182  0.00  0.00    -0.193 NA
BRANCH  24  25
ATOM     25  CA  GLU d   1      75.602  70.122  89.529  0.00  0.00     0.190 C 
BRANCH  25  26
ATOM     26  CB  GLU d   1      76.352  69.164  88.753  0.00  0.00    -0.028 C 
BRANCH  26  27
ATOM     27  CG  GLU d   1      77.233  68.150  87.950  0.00  0.00     0.012 C 
BRANCH  27  28
ATOM     28  CD  GLU d   1      78.116  67.185  87.170  0.00  0.00     0.258 C 
ATOM     29  OE1 GLU d   1      78.360  67.461  85.951  0.00  0.00    -0.637 OA
ATOM     30  OE2 GLU d   1      78.554  66.161  87.792  0.00  0.00    -0.637 OA
ENDBRANCH  27  28
ENDBRANCH  26  27
ENDBRANCH  25  26
BRANCH  25  31
ATOM     31  C   GLU d   1      74.544  69.566  90.549  0.00  0.00     0.238 C 
ATOM     32  O   GLU d   1      75.000  69.129  91.655  0.00  0.00    -0.642 OA
ATOM     33  OXT GLU d   1      73.338  69.515  90.134  0.00  0.00    -0.642 OA
ENDBRANCH  25  31
ENDBRANCH  24  25
ENDBRANCH   4  22
TORSDOF 9
ENDMDL
MODEL 14
REMARK VINA RESULT:      -7.0      4.339      6.875
REMARK  9 active torsions:
REMARK  status: ('A' for Active; 'I' for Inactive)
REMARK    1  A    between atoms: C_5  and  C_7 
REMARK    2  A    between atoms: C_7  and  N_8 
REMARK    3  A    between atoms: N_8  and  C_9 
REMARK    4  A    between atoms: C_12  and  C_15 
REMARK       I    between atoms: C_15  and  N_17 
REMARK    5  A    between atoms: CA_18  and  N_17 
REMARK    6  A    between atoms: CA_18  and  CB_19 
REMARK    7  A    between atoms: CA_18  and  C_24 
REMARK    8  A    between atoms: CB_19  and  CG_20 
REMARK    9  A    between atoms: CG_20  and  CD_21 
ROOT
ATOM      1  C   UNK d   0      62.150  71.696 100.797  0.00  0.00     0.067 A 
ATOM      2  C   UNK d   0      62.278  72.968 101.377  0.00  0.00     0.018 A 
ATOM      3  C   UNK d   0      63.200  73.222 102.391  0.00  0.00     0.006 A 
ATOM      4  C   UNK d   0      63.991  72.186 102.880  0.00  0.00     0.058 A 
ATOM      5  C   UNK d   0      63.866  70.905 102.340  0.00  0.00     0.006 A 
ATOM      6  C   UNK d   0      62.959  70.670 101.307  0.00  0.00     0.018 A 
ENDROOT
BRANCH   1   7
ATOM      7  N   UNK d   0      61.223  71.444  99.756  0.00  0.00    -0.291 N 
ATOM      8  C   UNK d   0      61.526  70.512  98.675  0.00  0.00     0.140 C 
BRANCH   7   9
ATOM      9  C   UNK d   0      59.801  71.686  99.945  0.00  0.00    -0.003 C 
BRANCH   9  10
ATOM     10  C   UNK d   0      58.388  71.833 100.004  0.00  0.00     0.151 A 
ATOM     11  C   UNK d   0      57.587  71.771  98.886  0.00  0.00     0.129 A 
ATOM     12  N   UNK d   0      56.231  71.768  98.979  0.00  0.00    -0.222 NA
ATOM     13  C   UNK d   0      55.676  71.817 100.193  0.00  0.00     0.185 A 
ATOM     14  C   UNK d   0      56.495  71.888 101.328  0.00  0.00     0.149 A 
ATOM     15  N   UNK d   0      54.348  71.780 100.250  0.00  0.00    -0.194 NA
ATOM     16  N   UNK d   0      57.859  71.897 101.246  0.00  0.00    -0.229 NA
ATOM     17  C   UNK d   0      55.772  71.926 102.513  0.00  0.00     0.174 A 
ATOM     18  N   UNK d   0      54.427  71.888 102.609  0.00  0.00    -0.199 NA
ATOM     19  N   UNK d   0      56.479  71.998 103.757  0.00  0.00    -0.078 NA
ATOM     20  C   UNK d   0      53.772  71.814 101.453  0.00  0.00     0.240 A 
ATOM     21  N   UNK d   0      52.349  71.751 101.507  0.00  0.00    -0.059 NA
ENDBRANCH   9  10
ENDBRANCH   7   9
ENDBRANCH   1   7
BRANCH   4  22
ATOM     22  C   UNK d   0      65.033  72.501 103.888  0.00  0.00     0.280 C 
ATOM     23  O   UNK d   0      65.062  71.783 104.889  0.00  0.00    -0.265 OA
ATOM     24  N   GLU d   1      65.720  73.618 103.636  0.00  0.00    -0.193 NA
BRANCH  24  25
ATOM     25  CA  GLU d   1      67.080  73.494 103.551  0.00  0.00     0.190 C 
BRANCH  25  26
ATOM     26  CB  GLU d   1      67.550  72.199 103.122  0.00  0.00    -0.028 C 
BRANCH  26  27
ATOM     27  CG  GLU d   1      68.131  70.811 102.692  0.00  0.00     0.012 C 
BRANCH  27  28
ATOM     28  CD  GLU d   1      68.728  69.473 102.273  0.00  0.00     0.258 C 
ATOM     29  OE1 GLU d   1      69.987  69.418 102.091  0.00  0.00    -0.637 OA
ATOM     30  OE2 GLU d   1      67.923  68.493 102.134  0.00  0.00    -0.637 OA
ENDBRANCH  27  28
ENDBRANCH  26  27
ENDBRANCH  25  26
BRANCH  25  31
ATOM     31  C   GLU d   1      68.154  74.542 104.018  0.00  0.00     0.238 C 
ATOM     32  O   GLU d   1      67.732  75.501 104.741  0.00  0.00    -0.642 OA
ATOM     33  OXT GLU d   1      69.331  74.386 103.548  0.00  0.00    -0.642 OA
ENDBRANCH  25  31
ENDBRANCH  24  25
ENDBRANCH   4  22
TORSDOF 9
ENDMDL
MODEL 15
REMARK VINA RESULT:      -7.0     15.136     18.041
REMARK  9 active torsions:
REMARK  status: ('A' for Active; 'I' for Inactive)
REMARK    1  A    between atoms: C_5  and  C_7 
REMARK    2  A    between atoms: C_7  and  N_8 
REMARK    3  A    between atoms: N_8  and  C_9 
REMARK    4  A    between atoms: C_12  and  C_15 
REMARK       I    between atoms: C_15  and  N_17 
REMARK    5  A    between atoms: CA_18  and  N_17 
REMARK    6  A    between atoms: CA_18  and  CB_19 
REMARK    7  A    between atoms: CA_18  and  C_24 
REMARK    8  A    between atoms: CB_19  and  CG_20 
REMARK    9  A    between atoms: CG_20  and  CD_21 
ROOT
ATOM      1  C   UNK d   0      77.987  67.233  88.614  0.00  0.00     0.067 A 
ATOM      2  C   UNK d   0      78.202  65.972  88.038  0.00  0.00     0.018 A 
ATOM      3  C   UNK d   0      78.634  64.883  88.795  0.00  0.00     0.006 A 
ATOM      4  C   UNK d   0      78.905  65.049  90.151  0.00  0.00     0.058 A 
ATOM      5  C   UNK d   0      78.726  66.299  90.745  0.00  0.00     0.006 A 
ATOM      6  C   UNK d   0      78.267  67.373  89.982  0.00  0.00     0.018 A 
ENDROOT
BRANCH   1   7
ATOM      7  N   UNK d   0      77.534  68.333  87.847  0.00  0.00    -0.291 N 
ATOM      8  C   UNK d   0      77.507  68.284  86.388  0.00  0.00     0.140 C 
BRANCH   7   9
ATOM      9  C   UNK d   0      76.643  69.330  88.420  0.00  0.00    -0.003 C 
BRANCH   9  10
ATOM     10  C   UNK d   0      75.705  70.188  89.059  0.00  0.00     0.151 A 
ATOM     11  C   UNK d   0      74.489  69.742  89.526  0.00  0.00     0.129 A 
ATOM     12  N   UNK d   0      73.671  70.542  90.261  0.00  0.00    -0.222 NA
ATOM     13  C   UNK d   0      74.075  71.786  90.534  0.00  0.00     0.185 A 
ATOM     14  C   UNK d   0      75.309  72.238  90.049  0.00  0.00     0.149 A 
ATOM     15  N   UNK d   0      73.265  72.530  91.281  0.00  0.00    -0.194 NA
ATOM     16  N   UNK d   0      76.137  71.443  89.306  0.00  0.00    -0.229 NA
ATOM     17  C   UNK d   0      75.589  73.545  90.422  0.00  0.00     0.174 A 
ATOM     18  N   UNK d   0      74.794  74.328  91.180  0.00  0.00    -0.199 NA
ATOM     19  N   UNK d   0      76.821  74.141  89.998  0.00  0.00    -0.078 NA
ATOM     20  C   UNK d   0      73.653  73.771  91.579  0.00  0.00     0.240 A 
ATOM     21  N   UNK d   0      72.790  74.556  92.399  0.00  0.00    -0.059 NA
ENDBRANCH   9  10
ENDBRANCH   7   9
ENDBRANCH   1   7
BRANCH   4  22
ATOM     22  C   UNK d   0      79.267  63.857  90.955  0.00  0.00     0.280 C 
ATOM     23  O   UNK d   0      78.707  63.740  92.046  0.00  0.00    -0.265 OA
ATOM     24  N   GLU d   1      80.265  63.132  90.442  0.00  0.00    -0.193 NA
BRANCH  24  25
ATOM     25  CA  GLU d   1      80.003  61.810  90.206  0.00  0.00     0.190 C 
BRANCH  25  26
ATOM     26  CB  GLU d   1      79.674  61.486  88.839  0.00  0.00    -0.028 C 
BRANCH  26  27
ATOM     27  CG  GLU d   1      79.335  61.059  87.372  0.00  0.00     0.012 C 
BRANCH  27  28
ATOM     28  CD  GLU d   1      79.038  60.638  85.938  0.00  0.00     0.258 C 
ATOM     29  OE1 GLU d   1      77.867  60.211  85.678  0.00  0.00    -0.637 OA
ATOM     30  OE2 GLU d   1      79.986  60.743  85.090  0.00  0.00    -0.637 OA
ENDBRANCH  27  28
ENDBRANCH  26  27
ENDBRANCH  25  26
BRANCH  25  31
ATOM     31  C   GLU d   1      79.869  60.668  91.277  0.00  0.00     0.238 C 
ATOM     32  O   GLU d   1      78.685  60.293  91.559  0.00  0.00    -0.642 OA
ATOM     33  OXT GLU d   1      80.954  60.293  91.835  0.00  0.00    -0.642 OA
ENDBRANCH  25  31
ENDBRANCH  24  25
ENDBRANCH   4  22
TORSDOF 9
ENDMDL
MODEL 16
REMARK VINA RESULT:      -6.9     14.883     17.544
REMARK  9 active torsions:
REMARK  status: ('A' for Active; 'I' for Inactive)
REMARK    1  A    between atoms: C_5  and  C_7 
REMARK    2  A    between atoms: C_7  and  N_8 
REMARK    3  A    between atoms: N_8  and  C_9 
REMARK    4  A    between atoms: C_12  and  C_15 
REMARK       I    between atoms: C_15  and  N_17 
REMARK    5  A    between atoms: CA_18  and  N_17 
REMARK    6  A    between atoms: CA_18  and  CB_19 
REMARK    7  A    between atoms: CA_18  and  C_24 
REMARK    8  A    between atoms: CB_19  and  CG_20 
REMARK    9  A    between atoms: CG_20  and  CD_21 
ROOT
ATOM      1  C   UNK d   0      76.785  71.018  88.684  0.00  0.00     0.067 A 
ATOM      2  C   UNK d   0      78.117  71.457  88.649  0.00  0.00     0.018 A 
ATOM      3  C   UNK d   0      78.501  72.682  89.194  0.00  0.00     0.006 A 
ATOM      4  C   UNK d   0      77.539  73.520  89.752  0.00  0.00     0.058 A 
ATOM      5  C   UNK d   0      76.202  73.121  89.776  0.00  0.00     0.006 A 
ATOM      6  C   UNK d   0      75.836  71.881  89.252  0.00  0.00     0.018 A 
ENDROOT
BRANCH   1   7
ATOM      7  N   UNK d   0      76.402  69.766  88.144  0.00  0.00    -0.291 N 
ATOM      8  C   UNK d   0      75.708  69.669  86.864  0.00  0.00     0.140 C 
BRANCH   7   9
ATOM      9  C   UNK d   0      77.074  68.540  88.545  0.00  0.00    -0.003 C 
BRANCH   9  10
ATOM     10  C   UNK d   0      77.839  67.375  88.830  0.00  0.00     0.151 A 
ATOM     11  C   UNK d   0      77.629  66.174  88.191  0.00  0.00     0.129 A 
ATOM     12  N   UNK d   0      78.462  65.115  88.371  0.00  0.00    -0.222 NA
ATOM     13  C   UNK d   0      79.511  65.262  89.185  0.00  0.00     0.185 A 
ATOM     14  C   UNK d   0      79.716  66.483  89.840  0.00  0.00     0.149 A 
ATOM     15  N   UNK d   0      80.324  64.217  89.314  0.00  0.00    -0.194 NA
ATOM     16  N   UNK d   0      78.882  67.553  89.670  0.00  0.00    -0.229 NA
ATOM     17  C   UNK d   0      80.848  66.481  90.643  0.00  0.00     0.174 A 
ATOM     18  N   UNK d   0      81.695  65.443  90.797  0.00  0.00    -0.199 NA
ATOM     19  N   UNK d   0      81.184  67.666  91.375  0.00  0.00    -0.078 NA
ATOM     20  C   UNK d   0      81.385  64.344  90.111  0.00  0.00     0.240 A 
ATOM     21  N   UNK d   0      82.264  63.228  90.227  0.00  0.00    -0.059 NA
ENDBRANCH   9  10
ENDBRANCH   7   9
ENDBRANCH   1   7
BRANCH   4  22
ATOM     22  C   UNK d   0      77.983  74.772  90.412  0.00  0.00     0.280 C 
ATOM     23  O   UNK d   0      78.949  75.346  89.906  0.00  0.00    -0.265 OA
ATOM     24  N   GLU d   1      77.355  75.039  91.560  0.00  0.00    -0.193 NA
BRANCH  24  25
ATOM     25  CA  GLU d   1      76.723  76.250  91.645  0.00  0.00     0.190 C 
BRANCH  25  26
ATOM     26  CB  GLU d   1      75.356  76.260  91.184  0.00  0.00    -0.028 C 
BRANCH  26  27
ATOM     27  CG  GLU d   1      73.897  76.227  90.620  0.00  0.00     0.012 C 
BRANCH  27  28
ATOM     28  CD  GLU d   1      72.487  76.207  90.042  0.00  0.00     0.258 C 
ATOM     29  OE1 GLU d   1      72.225  77.016  89.095  0.00  0.00    -0.637 OA
ATOM     30  OE2 GLU d   1      71.661  75.377  90.547  0.00  0.00    -0.637 OA
ENDBRANCH  27  28
ENDBRANCH  26  27
ENDBRANCH  25  26
BRANCH  25  31
ATOM     31  C   GLU d   1      77.373  77.628  92.031  0.00  0.00     0.238 C 
ATOM     32  O   GLU d   1      78.412  77.577  92.766  0.00  0.00    -0.642 OA
ATOM     33  OXT GLU d   1      76.741  78.671  91.653  0.00  0.00    -0.642 OA
ENDBRANCH  25  31
ENDBRANCH  24  25
ENDBRANCH   4  22
TORSDOF 9
ENDMDL
MODEL 17
REMARK VINA RESULT:      -6.9     15.050     17.070
REMARK  9 active torsions:
REMARK  status: ('A' for Active; 'I' for Inactive)
REMARK    1  A    between atoms: C_5  and  C_7 
REMARK    2  A    between atoms: C_7  and  N_8 
REMARK    3  A    between atoms: N_8  and  C_9 
REMARK    4  A    between atoms: C_12  and  C_15 
REMARK       I    between atoms: C_15  and  N_17 
REMARK    5  A    between atoms: CA_18  and  N_17 
REMARK    6  A    between atoms: CA_18  and  CB_19 
REMARK    7  A    between atoms: CA_18  and  C_24 
REMARK    8  A    between atoms: CB_19  and  CG_20 
REMARK    9  A    between atoms: CG_20  and  CD_21 
ROOT
ATOM      1  C   UNK d   0      81.467  76.751  93.044  0.00  0.00     0.067 A 
ATOM      2  C   UNK d   0      82.438  77.756  92.907  0.00  0.00     0.018 A 
ATOM      3  C   UNK d   0      82.569  78.782  93.841  0.00  0.00     0.006 A 
ATOM      4  C   UNK d   0      81.692  78.849  94.921  0.00  0.00     0.058 A 
ATOM      5  C   UNK d   0      80.700  77.879  95.068  0.00  0.00     0.006 A 
ATOM      6  C   UNK d   0      80.597  76.841  94.141  0.00  0.00     0.018 A 
ENDROOT
BRANCH   1   7
ATOM      7  N   UNK d   0      81.347  75.701  92.103  0.00  0.00    -0.291 N 
ATOM      8  C   UNK d   0      82.519  75.000  91.589  0.00  0.00     0.140 C 
BRANCH   7   9
ATOM      9  C   UNK d   0      80.107  74.951  91.972  0.00  0.00    -0.003 C 
BRANCH   9  10
ATOM     10  C   UNK d   0      78.933  74.148  91.977  0.00  0.00     0.151 A 
ATOM     11  C   UNK d   0      78.150  73.986  93.097  0.00  0.00     0.129 A 
ATOM     12  N   UNK d   0      76.957  73.335  93.045  0.00  0.00    -0.222 NA
ATOM     13  C   UNK d   0      76.546  72.854  91.869  0.00  0.00     0.185 A 
ATOM     14  C   UNK d   0      77.351  73.013  90.733  0.00  0.00     0.149 A 
ATOM     15  N   UNK d   0      75.360  72.251  91.846  0.00  0.00    -0.194 NA
ATOM     16  N   UNK d   0      78.553  73.662  90.775  0.00  0.00    -0.229 NA
ATOM     17  C   UNK d   0      76.785  72.467  89.590  0.00  0.00     0.174 A 
ATOM     18  N   UNK d   0      75.586  71.851  89.529  0.00  0.00    -0.199 NA
ATOM     19  N   UNK d   0      77.497  72.557  88.350  0.00  0.00    -0.078 NA
ATOM     20  C   UNK d   0      74.922  71.774  90.680  0.00  0.00     0.240 A 
ATOM     21  N   UNK d   0      73.642  71.149  90.660  0.00  0.00    -0.059 NA
ENDBRANCH   9  10
ENDBRANCH   7   9
ENDBRANCH   1   7
BRANCH   4  22
ATOM     22  C   UNK d   0      81.913  79.891  95.953  0.00  0.00     0.280 C 
ATOM     23  O   UNK d   0      82.924  80.583  95.826  0.00  0.00    -0.265 OA
ATOM     24  N   GLU d   1      81.048  79.848  96.970  0.00  0.00    -0.193 NA
BRANCH  24  25
ATOM     25  CA  GLU d   1      80.338  80.991  97.219  0.00  0.00     0.190 C 
BRANCH  25  26
ATOM     26  CB  GLU d   1      79.335  81.314  96.234  0.00  0.00    -0.028 C 
BRANCH  26  27
ATOM     27  CG  GLU d   1      78.213  81.592  95.178  0.00  0.00     0.012 C 
BRANCH  27  28
ATOM     28  CD  GLU d   1      77.135  81.892  94.144  0.00  0.00     0.258 C 
ATOM     29  OE1 GLU d   1      76.792  80.952  93.357  0.00  0.00    -0.637 OA
ATOM     30  OE2 GLU d   1      76.645  83.070  94.136  0.00  0.00    -0.637 OA
ENDBRANCH  27  28
ENDBRANCH  26  27
ENDBRANCH  25  26
BRANCH  25  31
ATOM     31  C   GLU d   1      80.612  82.043  98.353  0.00  0.00     0.238 C 
ATOM     32  O   GLU d   1      81.662  82.753  98.225  0.00  0.00    -0.642 OA
ATOM     33  OXT GLU d   1      79.808  82.021  99.345  0.00  0.00    -0.642 OA
ENDBRANCH  25  31
ENDBRANCH  24  25
ENDBRANCH   4  22
TORSDOF 9
ENDMDL
MODEL 18
REMARK VINA RESULT:      -6.8     15.403     19.135
REMARK  9 active torsions:
REMARK  status: ('A' for Active; 'I' for Inactive)
REMARK    1  A    between atoms: C_5  and  C_7 
REMARK    2  A    between atoms: C_7  and  N_8 
REMARK    3  A    between atoms: N_8  and  C_9 
REMARK    4  A    between atoms: C_12  and  C_15 
REMARK       I    between atoms: C_15  and  N_17 
REMARK    5  A    between atoms: CA_18  and  N_17 
REMARK    6  A    between atoms: CA_18  and  CB_19 
REMARK    7  A    between atoms: CA_18  and  C_24 
REMARK    8  A    between atoms: CB_19  and  CG_20 
REMARK    9  A    between atoms: CG_20  and  CD_21 
ROOT
ATOM      1  C   UNK d   0      58.671  86.353  90.442  0.00  0.00     0.067 A 
ATOM      2  C   UNK d   0      59.455  85.209  90.656  0.00  0.00     0.018 A 
ATOM      3  C   UNK d   0      59.099  83.966  90.134  0.00  0.00     0.006 A 
ATOM      4  C   UNK d   0      57.914  83.834  89.414  0.00  0.00     0.058 A 
ATOM      5  C   UNK d   0      57.101  84.949  89.209  0.00  0.00     0.006 A 
ATOM      6  C   UNK d   0      57.482  86.192  89.714  0.00  0.00     0.018 A 
ENDROOT
BRANCH   1   7
ATOM      7  N   UNK d   0      59.043  87.616  90.960  0.00  0.00    -0.291 N 
ATOM      8  C   UNK d   0      58.043  88.583  91.403  0.00  0.00     0.140 C 
BRANCH   7   9
ATOM      9  C   UNK d   0      60.365  87.833  91.529  0.00  0.00    -0.003 C 
BRANCH   9  10
ATOM     10  C   UNK d   0      61.602  88.179  92.139  0.00  0.00     0.151 A 
ATOM     11  C   UNK d   0      62.730  87.399  92.024  0.00  0.00     0.129 A 
ATOM     12  N   UNK d   0      63.937  87.817  92.490  0.00  0.00    -0.222 NA
ATOM     13  C   UNK d   0      64.015  89.022  93.062  0.00  0.00     0.185 A 
ATOM     14  C   UNK d   0      62.863  89.809  93.184  0.00  0.00     0.149 A 
ATOM     15  N   UNK d   0      65.217  89.414  93.477  0.00  0.00    -0.194 NA
ATOM     16  N   UNK d   0      61.644  89.396  92.724  0.00  0.00    -0.229 NA
ATOM     17  C   UNK d   0      63.107  91.032  93.792  0.00  0.00     0.174 A 
ATOM     18  N   UNK d   0      64.311  91.464  94.224  0.00  0.00    -0.199 NA
ATOM     19  N   UNK d   0      62.019  91.945  93.983  0.00  0.00    -0.078 NA
ATOM     20  C   UNK d   0      65.322  90.618  94.040  0.00  0.00     0.240 A 
ATOM     21  N   UNK d   0      66.616  91.041  94.462  0.00  0.00    -0.059 NA
ENDBRANCH   9  10
ENDBRANCH   7   9
ENDBRANCH   1   7
BRANCH   4  22
ATOM     22  C   UNK d   0      57.606  82.527  88.785  0.00  0.00     0.280 C 
ATOM     23  O   UNK d   0      58.416  81.619  88.981  0.00  0.00    -0.265 OA
ATOM     24  N   GLU d   1      56.549  82.547  87.968  0.00  0.00    -0.193 NA
BRANCH  24  25
ATOM     25  CA  GLU d   1      55.543  81.662  88.247  0.00  0.00     0.190 C 
BRANCH  25  26
ATOM     26  CB  GLU d   1      55.570  81.105  89.578  0.00  0.00    -0.028 C 
BRANCH  26  27
ATOM     27  CG  GLU d   1      55.679  80.510  91.021  0.00  0.00     0.012 C 
BRANCH  27  28
ATOM     28  CD  GLU d   1      55.772  79.958  92.438  0.00  0.00     0.258 C 
ATOM     29  OE1 GLU d   1      55.358  80.698  93.389  0.00  0.00    -0.637 OA
ATOM     30  OE2 GLU d   1      56.258  78.787  92.578  0.00  0.00    -0.637 OA
ENDBRANCH  27  28
ENDBRANCH  26  27
ENDBRANCH  25  26
BRANCH  25  31
ATOM     31  C   GLU d   1      54.488  81.085  87.236  0.00  0.00     0.238 C 
ATOM     32  O   GLU d   1      53.267  81.149  87.594  0.00  0.00    -0.642 OA
ATOM     33  OXT GLU d   1      54.961  80.517  86.195  0.00  0.00    -0.642 OA
ENDBRANCH  25  31
ENDBRANCH  24  25
ENDBRANCH   4  22
TORSDOF 9
ENDMDL
MODEL 19
REMARK VINA RESULT:      -6.8     15.246     17.923
REMARK  9 active torsions:
REMARK  status: ('A' for Active; 'I' for Inactive)
REMARK    1  A    between atoms: C_5  and  C_7 
REMARK    2  A    between atoms: C_7  and  N_8 
REMARK    3  A    between atoms: N_8  and  C_9 
REMARK    4  A    between atoms: C_12  and  C_15 
REMARK       I    between atoms: C_15  and  N_17 
REMARK    5  A    between atoms: CA_18  and  N_17 
REMARK    6  A    between atoms: CA_18  and  CB_19 
REMARK    7  A    between atoms: CA_18  and  C_24 
REMARK    8  A    between atoms: CB_19  and  CG_20 
REMARK    9  A    between atoms: CG_20  and  CD_21 
ROOT
ATOM      1  C   UNK d   0      68.187  85.337  93.654  0.00  0.00     0.067 A 
ATOM      2  C   UNK d   0      67.753  86.642  93.376  0.00  0.00     0.018 A 
ATOM      3  C   UNK d   0      66.634  86.891  92.582  0.00  0.00     0.006 A 
ATOM      4  C   UNK d   0      65.944  85.825  92.009  0.00  0.00     0.058 A 
ATOM      5  C   UNK d   0      66.370  84.517  92.246  0.00  0.00     0.006 A 
ATOM      6  C   UNK d   0      67.475  84.282  93.064  0.00  0.00     0.018 A 
ENDROOT
BRANCH   1   7
ATOM      7  N   UNK d   0      69.314  85.088  94.473  0.00  0.00    -0.291 N 
ATOM      8  C   UNK d   0      69.226  85.144  95.929  0.00  0.00     0.140 C 
BRANCH   7   9
ATOM      9  C   UNK d   0      70.440  84.309  93.981  0.00  0.00    -0.003 C 
BRANCH   9  10
ATOM     10  C   UNK d   0      71.506  83.603  93.359  0.00  0.00     0.151 A 
ATOM     11  C   UNK d   0      71.588  83.434  91.995  0.00  0.00     0.129 A 
ATOM     12  N   UNK d   0      72.685  82.884  91.409  0.00  0.00    -0.222 NA
ATOM     13  C   UNK d   0      73.704  82.511  92.189  0.00  0.00     0.185 A 
ATOM     14  C   UNK d   0      73.612  82.678  93.577  0.00  0.00     0.149 A 
ATOM     15  N   UNK d   0      74.774  82.007  91.581  0.00  0.00    -0.194 NA
ATOM     16  N   UNK d   0      72.512  83.226  94.177  0.00  0.00    -0.229 NA
ATOM     17  C   UNK d   0      74.750  82.251  94.248  0.00  0.00     0.174 A 
ATOM     18  N   UNK d   0      75.854  81.737  93.666  0.00  0.00    -0.199 NA
ATOM     19  N   UNK d   0      74.800  82.362  95.675  0.00  0.00    -0.078 NA
ATOM     20  C   UNK d   0      75.809  81.641  92.339  0.00  0.00     0.240 A 
ATOM     21  N   UNK d   0      76.961  81.122  91.679  0.00  0.00    -0.059 NA
ENDBRANCH   9  10
ENDBRANCH   7   9
ENDBRANCH   1   7
BRANCH   4  22
ATOM     22  C   UNK d   0      64.701  86.107  91.251  0.00  0.00     0.280 C 
ATOM     23  O   UNK d   0      63.841  85.224  91.260  0.00  0.00    -0.265 OA
ATOM     24  N   GLU d   1      64.736  87.238  90.540  0.00  0.00    -0.193 NA
BRANCH  24  25
ATOM     25  CA  GLU d   1      63.750  88.152  90.794  0.00  0.00     0.190 C 
BRANCH  25  26
ATOM     26  CB  GLU d   1      64.084  89.153  91.778  0.00  0.00    -0.028 C 
BRANCH  26  27
ATOM     27  CG  GLU d   1      64.371  90.232  92.875  0.00  0.00     0.012 C 
BRANCH  27  28
ATOM     28  CD  GLU d   1      64.667  91.301  93.920  0.00  0.00     0.258 C 
ATOM     29  OE1 GLU d   1      63.721  91.637  94.704  0.00  0.00    -0.637 OA
ATOM     30  OE2 GLU d   1      65.845  91.788  93.940  0.00  0.00    -0.637 OA
ENDBRANCH  27  28
ENDBRANCH  26  27
ENDBRANCH  25  26
BRANCH  25  31
ATOM     31  C   GLU d   1      62.274  88.121  90.257  0.00  0.00     0.238 C 
ATOM     32  O   GLU d   1      62.104  87.619  89.099  0.00  0.00    -0.642 OA
ATOM     33  OXT GLU d   1      61.398  88.691  90.991  0.00  0.00    -0.642 OA
ENDBRANCH  25  31
ENDBRANCH  24  25
ENDBRANCH   4  22
TORSDOF 9
ENDMDL
MODEL 20
REMARK VINA RESULT:      -6.7      6.048     10.608
REMARK  9 active torsions:
REMARK  status: ('A' for Active; 'I' for Inactive)
REMARK    1  A    between atoms: C_5  and  C_7 
REMARK    2  A    between atoms: C_7  and  N_8 
REMARK    3  A    between atoms: N_8  and  C_9 
REMARK    4  A    between atoms: C_12  and  C_15 
REMARK       I    between atoms: C_15  and  N_17 
REMARK    5  A    between atoms: CA_18  and  N_17 
REMARK    6  A    between atoms: CA_18  and  CB_19 
REMARK    7  A    between atoms: CA_18  and  C_24 
REMARK    8  A    between atoms: CB_19  and  CG_20 
REMARK    9  A    between atoms: CG_20  and  CD_21 
ROOT
ATOM      1  C   UNK d   0      60.710  71.345  99.233  0.00  0.00     0.067 A 
ATOM      2  C   UNK d   0      60.467  72.525  99.951  0.00  0.00     0.018 A 
ATOM      3  C   UNK d   0      59.231  72.784 100.542  0.00  0.00     0.006 A 
ATOM      4  C   UNK d   0      58.188  71.874 100.387  0.00  0.00     0.058 A 
ATOM      5  C   UNK d   0      58.394  70.704  99.655  0.00  0.00     0.006 A 
ATOM      6  C   UNK d   0      59.644  70.445  99.092  0.00  0.00     0.018 A 
ENDROOT
BRANCH   1   7
ATOM      7  N   UNK d   0      61.972  71.078  98.648  0.00  0.00    -0.291 N 
ATOM      8  C   UNK d   0      62.241  71.384  97.247  0.00  0.00     0.140 C 
BRANCH   7   9
ATOM      9  C   UNK d   0      63.169  70.963  99.467  0.00  0.00    -0.003 C 
BRANCH   9  10
ATOM     10  C   UNK d   0      64.347  71.006 100.262  0.00  0.00     0.151 A 
ATOM     11  C   UNK d   0      65.605  70.814  99.734  0.00  0.00     0.129 A 
ATOM     12  N   UNK d   0      66.726  71.003 100.479  0.00  0.00    -0.222 NA
ATOM     13  C   UNK d   0      66.589  71.391 101.750  0.00  0.00     0.185 A 
ATOM     14  C   UNK d   0      65.307  71.576 102.285  0.00  0.00     0.149 A 
ATOM     15  N   UNK d   0      67.706  71.597 102.441  0.00  0.00    -0.194 NA
ATOM     16  N   UNK d   0      64.172  71.386 101.546  0.00  0.00    -0.229 NA
ATOM     17  C   UNK d   0      65.329  71.986 103.610  0.00  0.00     0.174 A 
ATOM     18  N   UNK d   0      66.442  72.207 104.341  0.00  0.00    -0.199 NA
ATOM     19  N   UNK d   0      64.089  72.216 104.289  0.00  0.00    -0.078 NA
ATOM     20  C   UNK d   0      67.594  71.998 103.708  0.00  0.00     0.240 A 
ATOM     21  N   UNK d   0      68.796  72.238 104.435  0.00  0.00    -0.059 NA
ENDBRANCH   9  10
ENDBRANCH   7   9
ENDBRANCH   1   7
BRANCH   4  22
ATOM     22  C   UNK d   0      56.915  72.122 101.105  0.00  0.00     0.280 C 
ATOM     23  O   UNK d   0      56.987  72.804 102.129  0.00  0.00    -0.265 OA
ATOM     24  N   GLU d   1      55.869  71.451 100.615  0.00  0.00    -0.193 NA
BRANCH  24  25
ATOM     25  CA  GLU d   1      54.786  72.197 100.236  0.00  0.00     0.190 C 
BRANCH  25  26
ATOM     26  CB  GLU d   1      54.862  72.753  98.906  0.00  0.00    -0.028 C 
BRANCH  26  27
ATOM     27  CG  GLU d   1      54.969  73.283  97.438  0.00  0.00     0.012 C 
BRANCH  27  28
ATOM     28  CD  GLU d   1      55.100  73.780  96.004  0.00  0.00     0.258 C 
ATOM     29  OE1 GLU d   1      54.348  73.251  95.123  0.00  0.00    -0.637 OA
ATOM     30  OE2 GLU d   1      55.958  74.698  95.780  0.00  0.00    -0.637 OA
ENDBRANCH  27  28
ENDBRANCH  26  27
ENDBRANCH  25  26
BRANCH  25  31
ATOM     31  C   GLU d   1      53.577  72.632 101.140  0.00  0.00     0.238 C 
ATOM     32  O   GLU d   1      52.676  71.755 101.340  0.00  0.00    -0.642 OA
ATOM     33  OXT GLU d   1      53.564  73.855 101.509  0.00  0.00    -0.642 OA
ENDBRANCH  25  31
ENDBRANCH  24  25
ENDBRANCH   4  22
TORSDOF 9
ENDMDL
