MODEL 1
REMARK VINA RESULT:      -1.1      0.000      0.000
REMARK  2 active torsions:
REMARK  status: ('A' for Active; 'I' for Inactive)
REMARK    1  A    between atoms: C_4  and  C_5 
REMARK    2  A    between atoms: C_4  and  C_12 
REMARK       I    between atoms: C_5  and  N_7 
ROOT
ATOM      1 CL   UNL d   1      67.206  88.740  77.744  0.00  0.00     0.000 Cl
ENDROOT
TORSDOF 2
ENDMDL
MODEL 2
REMARK VINA RESULT:      -1.1     16.649     16.649
REMARK  2 active torsions:
REMARK  status: ('A' for Active; 'I' for Inactive)
REMARK    1  A    between atoms: C_4  and  C_5 
REMARK    2  A    between atoms: C_4  and  C_12 
REMARK       I    between atoms: C_5  and  N_7 
ROOT
ATOM      1 CL   UNL d   1      79.243  78.208  82.364  0.00  0.00     0.000 Cl
ENDROOT
TORSDOF 2
ENDMDL
MODEL 3
REMARK VINA RESULT:      -1.0     32.955     32.955
REMARK  2 active torsions:
REMARK  status: ('A' for Active; 'I' for Inactive)
REMARK    1  A    between atoms: C_4  and  C_5 
REMARK    2  A    between atoms: C_4  and  C_12 
REMARK       I    between atoms: C_5  and  N_7 
ROOT
ATOM      1 CL   UNL d   1      80.068  80.293 106.885  0.00  0.00     0.000 Cl
ENDROOT
TORSDOF 2
ENDMDL
MODEL 4
REMARK VINA RESULT:      -0.9     29.531     29.531
REMARK  2 active torsions:
REMARK  status: ('A' for Active; 'I' for Inactive)
REMARK    1  A    between atoms: C_4  and  C_5 
REMARK    2  A    between atoms: C_4  and  C_12 
REMARK       I    between atoms: C_5  and  N_7 
ROOT
ATOM      1 CL   UNL d   1      56.592  63.060  87.740  0.00  0.00     0.000 Cl
ENDROOT
TORSDOF 2
ENDMDL
MODEL 5
REMARK VINA RESULT:      -0.9     38.735     38.735
REMARK  2 active torsions:
REMARK  status: ('A' for Active; 'I' for Inactive)
REMARK    1  A    between atoms: C_4  and  C_5 
REMARK    2  A    between atoms: C_4  and  C_12 
REMARK       I    between atoms: C_5  and  N_7 
ROOT
ATOM      1 CL   UNL d   1      73.499  58.604 101.251  0.00  0.00     0.000 Cl
ENDROOT
TORSDOF 2
ENDMDL
MODEL 6
REMARK VINA RESULT:      -0.9     19.389     19.389
REMARK  2 active torsions:
REMARK  status: ('A' for Active; 'I' for Inactive)
REMARK    1  A    between atoms: C_4  and  C_5 
REMARK    2  A    between atoms: C_4  and  C_12 
REMARK       I    between atoms: C_5  and  N_7 
ROOT
ATOM      1 CL   UNL d   1      57.094  74.249  85.723  0.00  0.00     0.000 Cl
ENDROOT
TORSDOF 2
ENDMDL
MODEL 7
REMARK VINA RESULT:      -0.9     26.712     26.712
REMARK  2 active torsions:
REMARK  status: ('A' for Active; 'I' for Inactive)
REMARK    1  A    between atoms: C_4  and  C_5 
REMARK    2  A    between atoms: C_4  and  C_12 
REMARK       I    between atoms: C_5  and  N_7 
ROOT
ATOM      1 CL   UNL d   1      86.260  81.050  94.812  0.00  0.00     0.000 Cl
ENDROOT
TORSDOF 2
ENDMDL
MODEL 8
REMARK VINA RESULT:      -0.9     27.087     27.087
REMARK  2 active torsions:
REMARK  status: ('A' for Active; 'I' for Inactive)
REMARK    1  A    between atoms: C_4  and  C_5 
REMARK    2  A    between atoms: C_4  and  C_12 
REMARK       I    between atoms: C_5  and  N_7 
ROOT
ATOM      1 CL   UNL d   1      84.881  82.611  97.332  0.00  0.00     0.000 Cl
ENDROOT
TORSDOF 2
ENDMDL
MODEL 9
REMARK VINA RESULT:      -0.8     23.262     23.262
REMARK  2 active torsions:
REMARK  status: ('A' for Active; 'I' for Inactive)
REMARK    1  A    between atoms: C_4  and  C_5 
REMARK    2  A    between atoms: C_4  and  C_12 
REMARK       I    between atoms: C_5  and  N_7 
ROOT
ATOM      1 CL   UNL d   1      79.951  91.737  96.971  0.00  0.00     0.000 Cl
ENDROOT
TORSDOF 2
ENDMDL
MODEL 10
REMARK VINA RESULT:      -0.8      3.959      3.959
REMARK  2 active torsions:
REMARK  status: ('A' for Active; 'I' for Inactive)
REMARK    1  A    between atoms: C_4  and  C_5 
REMARK    2  A    between atoms: C_4  and  C_12 
REMARK       I    between atoms: C_5  and  N_7 
ROOT
ATOM      1 CL   UNL d   1      68.275  88.991  73.940  0.00  0.00     0.000 Cl
ENDROOT
TORSDOF 2
ENDMDL
MODEL 11
REMARK VINA RESULT:      -0.8     32.044     32.044
REMARK  2 active torsions:
REMARK  status: ('A' for Active; 'I' for Inactive)
REMARK    1  A    between atoms: C_4  and  C_5 
REMARK    2  A    between atoms: C_4  and  C_12 
REMARK       I    between atoms: C_5  and  N_7 
ROOT
ATOM      1 CL   UNL d   1      68.307  68.389 102.471  0.00  0.00     0.000 Cl
ENDROOT
TORSDOF 2
ENDMDL
MODEL 12
REMARK VINA RESULT:      -0.8     25.212     25.212
REMARK  2 active torsions:
REMARK  status: ('A' for Active; 'I' for Inactive)
REMARK    1  A    between atoms: C_4  and  C_5 
REMARK    2  A    between atoms: C_4  and  C_12 
REMARK       I    between atoms: C_5  and  N_7 
ROOT
ATOM      1 CL   UNL d   1      78.276  67.757  86.276  0.00  0.00     0.000 Cl
ENDROOT
TORSDOF 2
ENDMDL
MODEL 13
REMARK VINA RESULT:      -0.8     31.724     31.724
REMARK  2 active torsions:
REMARK  status: ('A' for Active; 'I' for Inactive)
REMARK    1  A    between atoms: C_4  and  C_5 
REMARK    2  A    between atoms: C_4  and  C_12 
REMARK       I    between atoms: C_5  and  N_7 
ROOT
ATOM      1 CL   UNL d   1      70.945  75.550 106.351  0.00  0.00     0.000 Cl
ENDROOT
TORSDOF 2
ENDMDL
MODEL 14
REMARK VINA RESULT:      -0.8     27.540     27.540
REMARK  2 active torsions:
REMARK  status: ('A' for Active; 'I' for Inactive)
REMARK    1  A    between atoms: C_4  and  C_5 
REMARK    2  A    between atoms: C_4  and  C_12 
REMARK       I    between atoms: C_5  and  N_7 
ROOT
ATOM      1 CL   UNL d   1      52.334  66.145  82.913  0.00  0.00     0.000 Cl
ENDROOT
TORSDOF 2
ENDMDL
MODEL 15
REMARK VINA RESULT:      -0.7     24.132     24.132
REMARK  2 active torsions:
REMARK  status: ('A' for Active; 'I' for Inactive)
REMARK    1  A    between atoms: C_4  and  C_5 
REMARK    2  A    between atoms: C_4  and  C_12 
REMARK       I    between atoms: C_5  and  N_7 
ROOT
ATOM      1 CL   UNL d   1      79.117  86.785  98.640  0.00  0.00     0.000 Cl
ENDROOT
TORSDOF 2
ENDMDL
MODEL 16
REMARK VINA RESULT:      -0.7     27.498     27.498
REMARK  2 active torsions:
REMARK  status: ('A' for Active; 'I' for Inactive)
REMARK    1  A    between atoms: C_4  and  C_5 
REMARK    2  A    between atoms: C_4  and  C_12 
REMARK       I    between atoms: C_5  and  N_7 
ROOT
ATOM      1 CL   UNL d   1      75.555  80.085 102.472  0.00  0.00     0.000 Cl
ENDROOT
TORSDOF 2
ENDMDL
MODEL 17
REMARK VINA RESULT:      -0.7     27.915     27.915
REMARK  2 active torsions:
REMARK  status: ('A' for Active; 'I' for Inactive)
REMARK    1  A    between atoms: C_4  and  C_5 
REMARK    2  A    between atoms: C_4  and  C_12 
REMARK       I    between atoms: C_5  and  N_7 
ROOT
ATOM      1 CL   UNL d   1      80.404  64.169  76.605  0.00  0.00     0.000 Cl
ENDROOT
TORSDOF 2
ENDMDL
MODEL 18
REMARK VINA RESULT:      -0.7     23.188     23.188
REMARK  2 active torsions:
REMARK  status: ('A' for Active; 'I' for Inactive)
REMARK    1  A    between atoms: C_4  and  C_5 
REMARK    2  A    between atoms: C_4  and  C_12 
REMARK       I    between atoms: C_5  and  N_7 
ROOT
ATOM      1 CL   UNL d   1      75.723  69.128  86.716  0.00  0.00     0.000 Cl
ENDROOT
TORSDOF 2
ENDMDL
MODEL 19
REMARK VINA RESULT:      -0.7     14.374     14.374
REMARK  2 active torsions:
REMARK  status: ('A' for Active; 'I' for Inactive)
REMARK    1  A    between atoms: C_4  and  C_5 
REMARK    2  A    between atoms: C_4  and  C_12 
REMARK       I    between atoms: C_5  and  N_7 
ROOT
ATOM      1 CL   UNL d   1      63.839  91.586  91.425  0.00  0.00     0.000 Cl
ENDROOT
TORSDOF 2
ENDMDL
MODEL 20
REMARK VINA RESULT:      -0.7     12.608     12.608
REMARK  2 active torsions:
REMARK  status: ('A' for Active; 'I' for Inactive)
REMARK    1  A    between atoms: C_4  and  C_5 
REMARK    2  A    between atoms: C_4  and  C_12 
REMARK       I    between atoms: C_5  and  N_7 
ROOT
ATOM      1 CL   UNL d   1      61.430  87.835  88.914  0.00  0.00     0.000 Cl
ENDROOT
TORSDOF 2
ENDMDL
