MODEL 1
REMARK VINA RESULT:      -5.4      0.000      0.000
REMARK  5 active torsions:
REMARK  status: ('A' for Active; 'I' for Inactive)
REMARK    1  A    between atoms: C_3  and  C_4 
REMARK    2  A    between atoms: C_4  and  C_5 
REMARK    3  A    between atoms: C_5  and  C_6 
REMARK    4  A    between atoms: C_5  and  C_14 
REMARK    5  A    between atoms: C_6  and  N_7 
ROOT
ATOM      1  C   UNL d   1      76.899  67.496  95.748  0.00  0.00     0.091 C 
ATOM      2  C   UNL d   1      76.642  68.089  94.361  0.00  0.00    -0.077 C 
ATOM      3  C   UNL d   1      76.396  68.688  92.970  0.00  0.00    -0.024 C 
ENDROOT
BRANCH   3   4
ATOM      4  C   UNL d   1      76.155  69.286  91.576  0.00  0.00    -0.049 C 
BRANCH   4   5
ATOM      5  C   UNL d   1      75.918  69.874  90.231  0.00  0.00     0.214 C 
ATOM      6  C   UNL d   1      74.455  69.911  89.947  0.00  0.00     0.102 C 
ATOM      7  N   UNL d   1      73.312  69.929  89.733  0.00  0.00    -0.194 NA
BRANCH   5   8
ATOM      8  C   UNL d   1      76.607  69.014  89.253  0.00  0.00     0.003 C 
BRANCH   8   9
ATOM      9  N   UNL d   1      77.290  68.208  88.308  0.00  0.00    -0.174 N 
ATOM     10  C   UNL d   1      77.479  68.523  86.990  0.00  0.00     0.210 A 
ATOM     11  N   UNL d   1      78.135  67.551  86.400  0.00  0.00    -0.200 NA
ATOM     12  C   UNL d   1      78.330  66.653  87.415  0.00  0.00     0.222 A 
ATOM     13  N   UNL d   1      77.821  67.015  88.597  0.00  0.00    -0.134 NA
ENDBRANCH   8   9
ENDBRANCH   5   8
BRANCH   5  14
ATOM     14  C   UNL d   1      76.469  71.303  90.163  0.00  0.00     0.014 A 
ATOM     15  C   UNL d   1      77.811  71.550  89.837  0.00  0.00    -0.001 A 
ATOM     16  C   UNL d   1      78.327  72.845  89.835  0.00  0.00     0.011 A 
ATOM     17  C   UNL d   1      77.504  73.910  90.181  0.00  0.00     0.058 A 
ATOM     18  C   UNL d   1      76.177  73.695  90.532  0.00  0.00     0.011 A 
ATOM     19 CL   UNL d   1      78.134  75.505  90.175  0.00  0.00    -0.082 Cl
ATOM     20  C   UNL d   1      75.671  72.397  90.530  0.00  0.00    -0.001 A 
ENDBRANCH   5  14
ENDBRANCH   4   5
ENDBRANCH   3   4
TORSDOF 5
ENDMDL
MODEL 2
REMARK VINA RESULT:      -5.4     11.084     13.205
REMARK  5 active torsions:
REMARK  status: ('A' for Active; 'I' for Inactive)
REMARK    1  A    between atoms: C_3  and  C_4 
REMARK    2  A    between atoms: C_4  and  C_5 
REMARK    3  A    between atoms: C_5  and  C_6 
REMARK    4  A    between atoms: C_5  and  C_14 
REMARK    5  A    between atoms: C_6  and  N_7 
ROOT
ATOM      1  C   UNL d   1      86.117  80.911  94.950  0.00  0.00     0.091 C 
ATOM      2  C   UNL d   1      84.679  80.832  95.468  0.00  0.00    -0.077 C 
ATOM      3  C   UNL d   1      83.237  80.743  95.985  0.00  0.00    -0.024 C 
ENDROOT
BRANCH   3   4
ATOM      4  C   UNL d   1      81.795  80.647  96.505  0.00  0.00    -0.049 C 
BRANCH   4   5
ATOM      5  C   UNL d   1      80.403  80.553  97.019  0.00  0.00     0.214 C 
ATOM      6  C   UNL d   1      80.147  81.657  97.988  0.00  0.00     0.102 C 
ATOM      7  N   UNL d   1      79.961  82.518  98.747  0.00  0.00    -0.194 NA
BRANCH   5   8
ATOM      8  C   UNL d   1      80.273  79.246  97.687  0.00  0.00     0.003 C 
BRANCH   8   9
ATOM      9  N   UNL d   1      80.176  77.994  98.342  0.00  0.00    -0.174 N 
ATOM     10  C   UNL d   1      79.160  77.092  98.178  0.00  0.00     0.210 A 
ATOM     11  N   UNL d   1      79.376  76.049  98.946  0.00  0.00    -0.200 NA
ATOM     12  C   UNL d   1      80.556  76.364  99.566  0.00  0.00     0.222 A 
ATOM     13  N   UNL d   1      81.074  77.549  99.229  0.00  0.00    -0.134 NA
ENDBRANCH   8   9
ENDBRANCH   5   8
BRANCH   5  14
ATOM     14  C   UNL d   1      79.396  80.665  95.869  0.00  0.00     0.014 A 
ATOM     15  C   UNL d   1      79.553  79.922  94.689  0.00  0.00    -0.001 A 
ATOM     16  C   UNL d   1      78.672  80.070  93.619  0.00  0.00     0.011 A 
ATOM     17  C   UNL d   1      77.628  80.982  93.713  0.00  0.00     0.058 A 
ATOM     18  C   UNL d   1      77.459  81.750  94.859  0.00  0.00     0.011 A 
ATOM     19 CL   UNL d   1      76.539  81.163  92.401  0.00  0.00    -0.082 Cl
ATOM     20  C   UNL d   1      78.346  81.595  95.923  0.00  0.00    -0.001 A 
ENDBRANCH   5  14
ENDBRANCH   4   5
ENDBRANCH   3   4
TORSDOF 5
ENDMDL
MODEL 3
REMARK VINA RESULT:      -5.4     10.227     13.156
REMARK  5 active torsions:
REMARK  status: ('A' for Active; 'I' for Inactive)
REMARK    1  A    between atoms: C_3  and  C_4 
REMARK    2  A    between atoms: C_4  and  C_5 
REMARK    3  A    between atoms: C_5  and  C_6 
REMARK    4  A    between atoms: C_5  and  C_14 
REMARK    5  A    between atoms: C_6  and  N_7 
ROOT
ATOM      1  C   UNL d   1      76.385  75.794  91.431  0.00  0.00     0.091 C 
ATOM      2  C   UNL d   1      76.348  77.298  91.710  0.00  0.00    -0.077 C 
ATOM      3  C   UNL d   1      76.310  78.803  92.001  0.00  0.00    -0.024 C 
ENDROOT
BRANCH   3   4
ATOM      4  C   UNL d   1      76.276  80.310  92.298  0.00  0.00    -0.049 C 
BRANCH   4   5
ATOM      5  C   UNL d   1      76.255  81.769  92.585  0.00  0.00     0.214 C 
ATOM      6  C   UNL d   1      77.019  82.501  91.535  0.00  0.00     0.102 C 
ATOM      7  N   UNL d   1      77.623  83.062  90.714  0.00  0.00    -0.194 NA
BRANCH   5   8
ATOM      8  C   UNL d   1      76.883  81.962  93.903  0.00  0.00     0.003 C 
BRANCH   8   9
ATOM      9  N   UNL d   1      77.510  82.164  95.158  0.00  0.00    -0.174 N 
ATOM     10  C   UNL d   1      78.625  81.508  95.600  0.00  0.00     0.210 A 
ATOM     11  N   UNL d   1      78.926  81.926  96.809  0.00  0.00    -0.200 NA
ATOM     12  C   UNL d   1      77.951  82.854  97.063  0.00  0.00     0.222 A 
ATOM     13  N   UNL d   1      77.060  83.023  96.081  0.00  0.00    -0.134 NA
ENDBRANCH   8   9
ENDBRANCH   5   8
BRANCH   5  14
ATOM     14  C   UNL d   1      74.814  82.294  92.601  0.00  0.00     0.014 A 
ATOM     15  C   UNL d   1      73.961  82.109  91.503  0.00  0.00    -0.001 A 
ATOM     16  C   UNL d   1      72.672  82.639  91.492  0.00  0.00     0.011 A 
ATOM     17  C   UNL d   1      72.228  83.381  92.580  0.00  0.00     0.058 A 
ATOM     18  C   UNL d   1      73.058  83.602  93.673  0.00  0.00     0.011 A 
ATOM     19 CL   UNL d   1      70.641  84.031  92.574  0.00  0.00    -0.082 Cl
ATOM     20  C   UNL d   1      74.345  83.067  93.674  0.00  0.00    -0.001 A 
ENDBRANCH   5  14
ENDBRANCH   4   5
ENDBRANCH   3   4
TORSDOF 5
ENDMDL
MODEL 4
REMARK VINA RESULT:      -5.4     10.983     13.125
REMARK  5 active torsions:
REMARK  status: ('A' for Active; 'I' for Inactive)
REMARK    1  A    between atoms: C_3  and  C_4 
REMARK    2  A    between atoms: C_4  and  C_5 
REMARK    3  A    between atoms: C_5  and  C_6 
REMARK    4  A    between atoms: C_5  and  C_14 
REMARK    5  A    between atoms: C_6  and  N_7 
ROOT
ATOM      1  C   UNL d   1      78.872  74.827  98.730  0.00  0.00     0.091 C 
ATOM      2  C   UNL d   1      79.211  76.256  98.301  0.00  0.00    -0.077 C 
ATOM      3  C   UNL d   1      79.540  77.692  97.872  0.00  0.00    -0.024 C 
ENDROOT
BRANCH   3   4
ATOM      4  C   UNL d   1      79.866  79.131  97.446  0.00  0.00    -0.049 C 
BRANCH   4   5
ATOM      5  C   UNL d   1      80.173  80.524  97.025  0.00  0.00     0.214 C 
ATOM      6  C   UNL d   1      79.999  81.450  98.180  0.00  0.00     0.102 C 
ATOM      7  N   UNL d   1      79.854  82.165  99.086  0.00  0.00    -0.194 NA
BRANCH   5   8
ATOM      8  C   UNL d   1      79.232  80.870  95.946  0.00  0.00     0.003 C 
BRANCH   8   9
ATOM      9  N   UNL d   1      78.326  81.231  94.918  0.00  0.00    -0.174 N 
ATOM     10  C   UNL d   1      78.286  80.679  93.667  0.00  0.00     0.210 A 
ATOM     11  N   UNL d   1      77.338  81.256  92.965  0.00  0.00    -0.200 NA
ATOM     12  C   UNL d   1      76.818  82.167  93.846  0.00  0.00     0.222 A 
ATOM     13  N   UNL d   1      77.399  82.188  95.049  0.00  0.00    -0.134 NA
ENDBRANCH   8   9
ENDBRANCH   5   8
BRANCH   5  14
ATOM     14  C   UNL d   1      81.618  80.628  96.524  0.00  0.00     0.014 A 
ATOM     15  C   UNL d   1      82.396  79.482  96.304  0.00  0.00    -0.001 A 
ATOM     16  C   UNL d   1      83.729  79.578  95.907  0.00  0.00     0.011 A 
ATOM     17  C   UNL d   1      84.306  80.832  95.744  0.00  0.00     0.058 A 
ATOM     18  C   UNL d   1      83.568  81.987  95.978  0.00  0.00     0.011 A 
ATOM     19 CL   UNL d   1      85.943  80.955  95.251  0.00  0.00    -0.082 Cl
ATOM     20  C   UNL d   1      82.237  81.879  96.373  0.00  0.00    -0.001 A 
ENDBRANCH   5  14
ENDBRANCH   4   5
ENDBRANCH   3   4
TORSDOF 5
ENDMDL
MODEL 5
REMARK VINA RESULT:      -5.3      3.876      5.935
REMARK  5 active torsions:
REMARK  status: ('A' for Active; 'I' for Inactive)
REMARK    1  A    between atoms: C_3  and  C_4 
REMARK    2  A    between atoms: C_4  and  C_5 
REMARK    3  A    between atoms: C_5  and  C_6 
REMARK    4  A    between atoms: C_5  and  C_14 
REMARK    5  A    between atoms: C_6  and  N_7 
ROOT
ATOM      1  C   UNL d   1      75.270  68.418  95.194  0.00  0.00     0.091 C 
ATOM      2  C   UNL d   1      76.114  68.362  93.920  0.00  0.00    -0.077 C 
ATOM      3  C   UNL d   1      76.955  68.298  92.638  0.00  0.00    -0.024 C 
ENDROOT
BRANCH   3   4
ATOM      4  C   UNL d   1      77.791  68.234  91.351  0.00  0.00    -0.049 C 
BRANCH   4   5
ATOM      5  C   UNL d   1      78.609  68.169  90.111  0.00  0.00     0.214 C 
ATOM      6  C   UNL d   1      79.865  68.952  90.294  0.00  0.00     0.102 C 
ATOM      7  N   UNL d   1      80.838  69.571  90.445  0.00  0.00    -0.194 NA
BRANCH   5   8
ATOM      8  C   UNL d   1      77.800  68.748  89.025  0.00  0.00     0.003 C 
BRANCH   8   9
ATOM      9  N   UNL d   1      77.006  69.321  88.001  0.00  0.00    -0.174 N 
ATOM     10  C   UNL d   1      76.593  70.624  87.955  0.00  0.00     0.210 A 
ATOM     11  N   UNL d   1      75.863  70.813  86.880  0.00  0.00    -0.200 NA
ATOM     12  C   UNL d   1      75.862  69.576  86.291  0.00  0.00     0.222 A 
ATOM     13  N   UNL d   1      76.544  68.634  86.949  0.00  0.00    -0.134 NA
ENDBRANCH   8   9
ENDBRANCH   5   8
BRANCH   5  14
ATOM     14  C   UNL d   1      78.978  66.717  89.784  0.00  0.00     0.014 A 
ATOM     15  C   UNL d   1      80.215  66.178  90.167  0.00  0.00    -0.001 A 
ATOM     16  C   UNL d   1      80.576  64.877  89.816  0.00  0.00     0.011 A 
ATOM     17  C   UNL d   1      79.703  64.106  89.057  0.00  0.00     0.058 A 
ATOM     18  C   UNL d   1      78.481  64.621  88.643  0.00  0.00     0.011 A 
ATOM     19 CL   UNL d   1      80.141  62.505  88.629  0.00  0.00    -0.082 Cl
ATOM     20  C   UNL d   1      78.130  65.921  88.999  0.00  0.00    -0.001 A 
ENDBRANCH   5  14
ENDBRANCH   4   5
ENDBRANCH   3   4
TORSDOF 5
ENDMDL
MODEL 6
REMARK VINA RESULT:      -5.2     21.398     23.513
REMARK  5 active torsions:
REMARK  status: ('A' for Active; 'I' for Inactive)
REMARK    1  A    between atoms: C_3  and  C_4 
REMARK    2  A    between atoms: C_4  and  C_5 
REMARK    3  A    between atoms: C_5  and  C_6 
REMARK    4  A    between atoms: C_5  and  C_14 
REMARK    5  A    between atoms: C_6  and  N_7 
ROOT
ATOM      1  C   UNL d   1      55.381  65.267  78.179  0.00  0.00     0.091 C 
ATOM      2  C   UNL d   1      55.510  66.791  78.216  0.00  0.00    -0.077 C 
ATOM      3  C   UNL d   1      55.629  68.320  78.258  0.00  0.00    -0.024 C 
ENDROOT
BRANCH   3   4
ATOM      4  C   UNL d   1      55.746  69.851  78.306  0.00  0.00    -0.049 C 
BRANCH   4   5
ATOM      5  C   UNL d   1      55.853  71.333  78.362  0.00  0.00     0.214 C 
ATOM      6  C   UNL d   1      54.496  71.941  78.255  0.00  0.00     0.102 C 
ATOM      7  N   UNL d   1      53.433  72.404  78.165  0.00  0.00    -0.194 NA
BRANCH   5   8
ATOM      8  C   UNL d   1      56.691  71.751  77.225  0.00  0.00     0.003 C 
BRANCH   8   9
ATOM      9  N   UNL d   1      57.499  72.125  76.122  0.00  0.00    -0.174 N 
ATOM     10  C   UNL d   1      57.201  73.110  75.221  0.00  0.00     0.210 A 
ATOM     11  N   UNL d   1      58.155  73.181  74.322  0.00  0.00    -0.200 NA
ATOM     12  C   UNL d   1      59.029  72.206  74.725  0.00  0.00     0.222 A 
ATOM     13  N   UNL d   1      58.660  71.532  75.819  0.00  0.00    -0.134 NA
ENDBRANCH   8   9
ENDBRANCH   5   8
BRANCH   5  14
ATOM     14  C   UNL d   1      56.489  71.778  79.684  0.00  0.00     0.014 A 
ATOM     15  C   UNL d   1      57.882  71.854  79.831  0.00  0.00    -0.001 A 
ATOM     16  C   UNL d   1      58.462  72.199  81.051  0.00  0.00     0.011 A 
ATOM     17  C   UNL d   1      57.647  72.454  82.148  0.00  0.00     0.058 A 
ATOM     18  C   UNL d   1      56.265  72.364  82.040  0.00  0.00     0.011 A 
ATOM     19 CL   UNL d   1      58.357  72.885  83.648  0.00  0.00    -0.082 Cl
ATOM     20  C   UNL d   1      55.696  72.019  80.816  0.00  0.00    -0.001 A 
ENDBRANCH   5  14
ENDBRANCH   4   5
ENDBRANCH   3   4
TORSDOF 5
ENDMDL
MODEL 7
REMARK VINA RESULT:      -5.2      3.540      6.233
REMARK  5 active torsions:
REMARK  status: ('A' for Active; 'I' for Inactive)
REMARK    1  A    between atoms: C_3  and  C_4 
REMARK    2  A    between atoms: C_4  and  C_5 
REMARK    3  A    between atoms: C_5  and  C_6 
REMARK    4  A    between atoms: C_5  and  C_14 
REMARK    5  A    between atoms: C_6  and  N_7 
ROOT
ATOM      1  C   UNL d   1      79.430  75.853  89.413  0.00  0.00     0.091 C 
ATOM      2  C   UNL d   1      78.627  74.613  89.814  0.00  0.00    -0.077 C 
ATOM      3  C   UNL d   1      77.818  73.370  90.206  0.00  0.00    -0.024 C 
ENDROOT
BRANCH   3   4
ATOM      4  C   UNL d   1      77.010  72.123  90.593  0.00  0.00    -0.049 C 
BRANCH   4   5
ATOM      5  C   UNL d   1      76.235  70.913  90.975  0.00  0.00     0.214 C 
ATOM      6  C   UNL d   1      74.777  71.170  90.798  0.00  0.00     0.102 C 
ATOM      7  N   UNL d   1      73.642  71.383  90.663  0.00  0.00    -0.194 NA
BRANCH   5   8
ATOM      8  C   UNL d   1      76.537  70.632  92.390  0.00  0.00     0.003 C 
BRANCH   8   9
ATOM      9  N   UNL d   1      76.808  70.338  93.749  0.00  0.00    -0.174 N 
ATOM     10  C   UNL d   1      78.033  69.999  94.256  0.00  0.00     0.210 A 
ATOM     11  N   UNL d   1      77.924  69.778  95.546  0.00  0.00    -0.200 NA
ATOM     12  C   UNL d   1      76.594  70.002  95.784  0.00  0.00     0.222 A 
ATOM     13  N   UNL d   1      75.875  70.339  94.709  0.00  0.00    -0.134 NA
ENDBRANCH   8   9
ENDBRANCH   5   8
BRANCH   5  14
ATOM     14  C   UNL d   1      76.634  69.719  90.100  0.00  0.00     0.014 A 
ATOM     15  C   UNL d   1      77.387  68.656  90.619  0.00  0.00    -0.001 A 
ATOM     16  C   UNL d   1      77.803  67.601  89.808  0.00  0.00     0.011 A 
ATOM     17  C   UNL d   1      77.482  67.609  88.456  0.00  0.00     0.058 A 
ATOM     18  C   UNL d   1      76.757  68.660  87.907  0.00  0.00     0.011 A 
ATOM     19 CL   UNL d   1      77.986  66.311  87.456  0.00  0.00    -0.082 Cl
ATOM     20  C   UNL d   1      76.346  69.709  88.726  0.00  0.00    -0.001 A 
ENDBRANCH   5  14
ENDBRANCH   4   5
ENDBRANCH   3   4
TORSDOF 5
ENDMDL
MODEL 8
REMARK VINA RESULT:      -5.1     12.614     14.807
REMARK  5 active torsions:
REMARK  status: ('A' for Active; 'I' for Inactive)
REMARK    1  A    between atoms: C_3  and  C_4 
REMARK    2  A    between atoms: C_4  and  C_5 
REMARK    3  A    between atoms: C_5  and  C_6 
REMARK    4  A    between atoms: C_5  and  C_14 
REMARK    5  A    between atoms: C_6  and  N_7 
ROOT
ATOM      1  C   UNL d   1      65.580  70.271  96.328  0.00  0.00     0.091 C 
ATOM      2  C   UNL d   1      65.063  71.127  95.170  0.00  0.00    -0.077 C 
ATOM      3  C   UNL d   1      64.555  71.986  94.004  0.00  0.00    -0.024 C 
ENDROOT
BRANCH   3   4
ATOM      4  C   UNL d   1      64.050  72.843  92.833  0.00  0.00    -0.049 C 
BRANCH   4   5
ATOM      5  C   UNL d   1      63.555  73.677  91.707  0.00  0.00     0.214 C 
ATOM      6  C   UNL d   1      63.467  72.852  90.468  0.00  0.00     0.102 C 
ATOM      7  N   UNL d   1      63.409  72.201  89.506  0.00  0.00    -0.194 NA
BRANCH   5   8
ATOM      8  C   UNL d   1      64.519  74.775  91.523  0.00  0.00     0.003 C 
BRANCH   8   9
ATOM      9  N   UNL d   1      65.456  75.819  91.320  0.00  0.00    -0.174 N 
ATOM     10  C   UNL d   1      66.816  75.684  91.378  0.00  0.00     0.210 A 
ATOM     11  N   UNL d   1      67.379  76.850  91.158  0.00  0.00    -0.200 NA
ATOM     12  C   UNL d   1      66.305  77.677  90.963  0.00  0.00     0.222 A 
ATOM     13  N   UNL d   1      65.110  77.086  91.061  0.00  0.00    -0.134 NA
ENDBRANCH   8   9
ENDBRANCH   5   8
BRANCH   5  14
ATOM     14  C   UNL d   1      62.164  74.238  92.024  0.00  0.00     0.014 A 
ATOM     15  C   UNL d   1      61.819  75.556  91.691  0.00  0.00    -0.001 A 
ATOM     16  C   UNL d   1      60.576  76.087  92.033  0.00  0.00     0.011 A 
ATOM     17  C   UNL d   1      59.667  75.303  92.735  0.00  0.00     0.058 A 
ATOM     18  C   UNL d   1      59.989  74.001  93.099  0.00  0.00     0.011 A 
ATOM     19 CL   UNL d   1      58.135  75.949  93.153  0.00  0.00    -0.082 Cl
ATOM     20  C   UNL d   1      61.233  73.481  92.752  0.00  0.00    -0.001 A 
ENDBRANCH   5  14
ENDBRANCH   4   5
ENDBRANCH   3   4
TORSDOF 5
ENDMDL
MODEL 9
REMARK VINA RESULT:      -5.0     10.809     13.388
REMARK  5 active torsions:
REMARK  status: ('A' for Active; 'I' for Inactive)
REMARK    1  A    between atoms: C_3  and  C_4 
REMARK    2  A    between atoms: C_4  and  C_5 
REMARK    3  A    between atoms: C_5  and  C_6 
REMARK    4  A    between atoms: C_5  and  C_14 
REMARK    5  A    between atoms: C_6  and  N_7 
ROOT
ATOM      1  C   UNL d   1      86.094  80.966  95.115  0.00  0.00     0.091 C 
ATOM      2  C   UNL d   1      84.845  80.189  95.536  0.00  0.00    -0.077 C 
ATOM      3  C   UNL d   1      83.599  79.402  95.962  0.00  0.00    -0.024 C 
ENDROOT
BRANCH   3   4
ATOM      4  C   UNL d   1      82.355  78.611  96.394  0.00  0.00    -0.049 C 
BRANCH   4   5
ATOM      5  C   UNL d   1      81.150  77.842  96.803  0.00  0.00     0.214 C 
ATOM      6  C   UNL d   1      80.406  77.390  95.593  0.00  0.00     0.102 C 
ATOM      7  N   UNL d   1      79.830  77.047  94.642  0.00  0.00    -0.194 NA
BRANCH   5   8
ATOM      8  C   UNL d   1      80.312  78.743  97.611  0.00  0.00     0.003 C 
BRANCH   8   9
ATOM      9  N   UNL d   1      79.526  79.632  98.386  0.00  0.00    -0.174 N 
ATOM     10  C   UNL d   1      79.857  80.924  98.687  0.00  0.00     0.210 A 
ATOM     11  N   UNL d   1      78.916  81.454  99.434  0.00  0.00    -0.200 NA
ATOM     12  C   UNL d   1      78.014  80.430  99.560  0.00  0.00     0.222 A 
ATOM     13  N   UNL d   1      78.355  79.296  98.940  0.00  0.00    -0.134 NA
ENDBRANCH   8   9
ENDBRANCH   5   8
BRANCH   5  14
ATOM     14  C   UNL d   1      81.551  76.610  97.623  0.00  0.00     0.014 A 
ATOM     15  C   UNL d   1      82.444  75.656  97.113  0.00  0.00    -0.001 A 
ATOM     16  C   UNL d   1      82.761  74.505  97.833  0.00  0.00     0.011 A 
ATOM     17  C   UNL d   1      82.167  74.287  99.071  0.00  0.00     0.058 A 
ATOM     18  C   UNL d   1      81.260  75.202  99.592  0.00  0.00     0.011 A 
ATOM     19 CL   UNL d   1      82.558  72.875  99.962  0.00  0.00    -0.082 Cl
ATOM     20  C   UNL d   1      80.951  76.349  98.864  0.00  0.00    -0.001 A 
ENDBRANCH   5  14
ENDBRANCH   4   5
ENDBRANCH   3   4
TORSDOF 5
ENDMDL
MODEL 10
REMARK VINA RESULT:      -5.0     11.056     13.208
REMARK  5 active torsions:
REMARK  status: ('A' for Active; 'I' for Inactive)
REMARK    1  A    between atoms: C_3  and  C_4 
REMARK    2  A    between atoms: C_4  and  C_5 
REMARK    3  A    between atoms: C_5  and  C_6 
REMARK    4  A    between atoms: C_5  and  C_14 
REMARK    5  A    between atoms: C_6  and  N_7 
ROOT
ATOM      1  C   UNL d   1      76.165  80.753 101.616  0.00  0.00     0.091 C 
ATOM      2  C   UNL d   1      76.843  80.571 100.257  0.00  0.00    -0.077 C 
ATOM      3  C   UNL d   1      77.522  80.399  98.892  0.00  0.00    -0.024 C 
ENDROOT
BRANCH   3   4
ATOM      4  C   UNL d   1      78.206  80.232  97.526  0.00  0.00    -0.049 C 
BRANCH   4   5
ATOM      5  C   UNL d   1      78.866  80.082  96.203  0.00  0.00     0.214 C 
ATOM      6  C   UNL d   1      78.881  78.644  95.807  0.00  0.00     0.102 C 
ATOM      7  N   UNL d   1      78.893  77.520  95.511  0.00  0.00    -0.194 NA
BRANCH   5   8
ATOM      8  C   UNL d   1      80.242  80.587  96.344  0.00  0.00     0.003 C 
BRANCH   8   9
ATOM      9  N   UNL d   1      81.577  81.046  96.474  0.00  0.00    -0.174 N 
ATOM     10  C   UNL d   1      82.695  80.326  96.157  0.00  0.00     0.210 A 
ATOM     11  N   UNL d   1      83.764  81.044  96.414  0.00  0.00    -0.200 NA
ATOM     12  C   UNL d   1      83.237  82.215  96.892  0.00  0.00     0.222 A 
ATOM     13  N   UNL d   1      81.903  82.253  96.951  0.00  0.00    -0.134 NA
ENDBRANCH   8   9
ENDBRANCH   5   8
BRANCH   5  14
ATOM     14  C   UNL d   1      78.113  80.879  95.132  0.00  0.00     0.014 A 
ATOM     15  C   UNL d   1      78.227  80.557  93.771  0.00  0.00    -0.001 A 
ATOM     16  C   UNL d   1      77.592  81.320  92.792  0.00  0.00     0.011 A 
ATOM     17  C   UNL d   1      76.848  82.432  93.167  0.00  0.00     0.058 A 
ATOM     18  C   UNL d   1      76.736  82.791  94.505  0.00  0.00     0.011 A 
ATOM     19 CL   UNL d   1      76.061  83.370  91.967  0.00  0.00    -0.082 Cl
ATOM     20  C   UNL d   1      77.374  82.022  95.475  0.00  0.00    -0.001 A 
ENDBRANCH   5  14
ENDBRANCH   4   5
ENDBRANCH   3   4
TORSDOF 5
ENDMDL
MODEL 11
REMARK VINA RESULT:      -4.9     12.830     15.861
REMARK  5 active torsions:
REMARK  status: ('A' for Active; 'I' for Inactive)
REMARK    1  A    between atoms: C_3  and  C_4 
REMARK    2  A    between atoms: C_4  and  C_5 
REMARK    3  A    between atoms: C_5  and  C_6 
REMARK    4  A    between atoms: C_5  and  C_14 
REMARK    5  A    between atoms: C_6  and  N_7 
ROOT
ATOM      1  C   UNL d   1      69.875  73.022  96.218  0.00  0.00     0.091 C 
ATOM      2  C   UNL d   1      69.516  72.603  97.645  0.00  0.00    -0.077 C 
ATOM      3  C   UNL d   1      69.149  72.176  99.072  0.00  0.00    -0.024 C 
ENDROOT
BRANCH   3   4
ATOM      4  C   UNL d   1      68.782  71.741 100.499  0.00  0.00    -0.049 C 
BRANCH   4   5
ATOM      5  C   UNL d   1      68.423  71.312 101.876  0.00  0.00     0.214 C 
ATOM      6  C   UNL d   1      69.087  70.014 102.190  0.00  0.00     0.102 C 
ATOM      7  N   UNL d   1      69.605  68.999 102.421  0.00  0.00    -0.194 NA
BRANCH   5   8
ATOM      8  C   UNL d   1      66.958  71.159 101.916  0.00  0.00     0.003 C 
BRANCH   8   9
ATOM      9  N   UNL d   1      65.549  71.004 101.924  0.00  0.00    -0.174 N 
ATOM     10  C   UNL d   1      64.685  71.672 102.748  0.00  0.00     0.210 A 
ATOM     11  N   UNL d   1      63.457  71.279 102.501  0.00  0.00    -0.200 NA
ATOM     12  C   UNL d   1      63.625  70.359 101.501  0.00  0.00     0.222 A 
ATOM     13  N   UNL d   1      64.892  70.157 101.124  0.00  0.00    -0.134 NA
ENDBRANCH   8   9
ENDBRANCH   5   8
BRANCH   5  14
ATOM     14  C   UNL d   1      68.876  72.357 102.902  0.00  0.00     0.014 A 
ATOM     15  C   UNL d   1      68.920  72.059 104.272  0.00  0.00    -0.001 A 
ATOM     16  C   UNL d   1      69.272  73.027 105.211  0.00  0.00     0.011 A 
ATOM     17  C   UNL d   1      69.568  74.317 104.786  0.00  0.00     0.058 A 
ATOM     18  C   UNL d   1      69.511  74.649 103.438  0.00  0.00     0.011 A 
ATOM     19 CL   UNL d   1      70.008  75.510 105.937  0.00  0.00    -0.082 Cl
ATOM     20  C   UNL d   1      69.158  73.674 102.508  0.00  0.00    -0.001 A 
ENDBRANCH   5  14
ENDBRANCH   4   5
ENDBRANCH   3   4
TORSDOF 5
ENDMDL
MODEL 12
REMARK VINA RESULT:      -4.9     12.331     14.340
REMARK  5 active torsions:
REMARK  status: ('A' for Active; 'I' for Inactive)
REMARK    1  A    between atoms: C_3  and  C_4 
REMARK    2  A    between atoms: C_4  and  C_5 
REMARK    3  A    between atoms: C_5  and  C_6 
REMARK    4  A    between atoms: C_5  and  C_14 
REMARK    5  A    between atoms: C_6  and  N_7 
ROOT
ATOM      1  C   UNL d   1      71.868  82.427  99.729  0.00  0.00     0.091 C 
ATOM      2  C   UNL d   1      73.246  82.492  99.068  0.00  0.00    -0.077 C 
ATOM      3  C   UNL d   1      74.623  82.556  98.395  0.00  0.00    -0.024 C 
ENDROOT
BRANCH   3   4
ATOM      4  C   UNL d   1      76.000  82.624  97.717  0.00  0.00    -0.049 C 
BRANCH   4   5
ATOM      5  C   UNL d   1      77.337  82.693  97.071  0.00  0.00     0.214 C 
ATOM      6  C   UNL d   1      78.012  83.969  97.443  0.00  0.00     0.102 C 
ATOM      7  N   UNL d   1      78.527  84.970  97.735  0.00  0.00    -0.194 NA
BRANCH   5   8
ATOM      8  C   UNL d   1      77.119  82.636  95.615  0.00  0.00     0.003 C 
BRANCH   8   9
ATOM      9  N   UNL d   1      76.938  82.592  94.210  0.00  0.00    -0.174 N 
ATOM     10  C   UNL d   1      77.346  81.575  93.391  0.00  0.00     0.210 A 
ATOM     11  N   UNL d   1      77.034  81.864  92.149  0.00  0.00    -0.200 NA
ATOM     12  C   UNL d   1      76.424  83.086  92.263  0.00  0.00     0.222 A 
ATOM     13  N   UNL d   1      76.353  83.569  93.507  0.00  0.00    -0.134 NA
ENDBRANCH   8   9
ENDBRANCH   5   8
BRANCH   5  14
ATOM     14  C   UNL d   1      78.216  81.521  97.523  0.00  0.00     0.014 A 
ATOM     15  C   UNL d   1      79.143  80.930  96.653  0.00  0.00    -0.001 A 
ATOM     16  C   UNL d   1      79.898  79.825  97.043  0.00  0.00     0.011 A 
ATOM     17  C   UNL d   1      79.716  79.286  98.312  0.00  0.00     0.058 A 
ATOM     18  C   UNL d   1      78.789  79.835  99.189  0.00  0.00     0.011 A 
ATOM     19 CL   UNL d   1      80.647  77.931  98.799  0.00  0.00    -0.082 Cl
ATOM     20  C   UNL d   1      78.040  80.940  98.788  0.00  0.00    -0.001 A 
ENDBRANCH   5  14
ENDBRANCH   4   5
ENDBRANCH   3   4
TORSDOF 5
ENDMDL
MODEL 13
REMARK VINA RESULT:      -4.9      4.125      5.948
REMARK  5 active torsions:
REMARK  status: ('A' for Active; 'I' for Inactive)
REMARK    1  A    between atoms: C_3  and  C_4 
REMARK    2  A    between atoms: C_4  and  C_5 
REMARK    3  A    between atoms: C_5  and  C_6 
REMARK    4  A    between atoms: C_5  and  C_14 
REMARK    5  A    between atoms: C_6  and  N_7 
ROOT
ATOM      1  C   UNL d   1      80.851  71.744  95.296  0.00  0.00     0.091 C 
ATOM      2  C   UNL d   1      80.089  71.911  93.979  0.00  0.00    -0.077 C 
ATOM      3  C   UNL d   1      79.334  72.072  92.654  0.00  0.00    -0.024 C 
ENDROOT
BRANCH   3   4
ATOM      4  C   UNL d   1      78.578  72.227  91.325  0.00  0.00    -0.049 C 
BRANCH   4   5
ATOM      5  C   UNL d   1      77.854  72.385  90.037  0.00  0.00     0.214 C 
ATOM      6  C   UNL d   1      78.487  73.468  89.231  0.00  0.00     0.102 C 
ATOM      7  N   UNL d   1      78.985  74.319  88.614  0.00  0.00    -0.194 NA
BRANCH   5   8
ATOM      8  C   UNL d   1      76.461  72.737  90.361  0.00  0.00     0.003 C 
BRANCH   8   9
ATOM      9  N   UNL d   1      75.131  73.092  90.697  0.00  0.00    -0.174 N 
ATOM     10  C   UNL d   1      74.113  72.211  90.939  0.00  0.00     0.210 A 
ATOM     11  N   UNL d   1      73.013  72.877  91.205  0.00  0.00    -0.200 NA
ATOM     12  C   UNL d   1      73.417  74.183  91.115  0.00  0.00     0.222 A 
ATOM     13  N   UNL d   1      74.704  74.357  90.799  0.00  0.00    -0.134 NA
ENDBRANCH   8   9
ENDBRANCH   5   8
BRANCH   5  14
ATOM     14  C   UNL d   1      77.899  71.082  89.230  0.00  0.00     0.014 A 
ATOM     15  C   UNL d   1      76.770  70.614  88.541  0.00  0.00    -0.001 A 
ATOM     16  C   UNL d   1      76.792  69.399  87.859  0.00  0.00     0.011 A 
ATOM     17  C   UNL d   1      77.946  68.625  87.876  0.00  0.00     0.058 A 
ATOM     18  C   UNL d   1      79.073  69.050  88.569  0.00  0.00     0.011 A 
ATOM     19 CL   UNL d   1      77.979  67.132  87.034  0.00  0.00    -0.082 Cl
ATOM     20  C   UNL d   1      79.041  70.266  89.248  0.00  0.00    -0.001 A 
ENDBRANCH   5  14
ENDBRANCH   4   5
ENDBRANCH   3   4
TORSDOF 5
ENDMDL
MODEL 14
REMARK VINA RESULT:      -4.8      9.806     12.592
REMARK  5 active torsions:
REMARK  status: ('A' for Active; 'I' for Inactive)
REMARK    1  A    between atoms: C_3  and  C_4 
REMARK    2  A    between atoms: C_4  and  C_5 
REMARK    3  A    between atoms: C_5  and  C_6 
REMARK    4  A    between atoms: C_5  and  C_14 
REMARK    5  A    between atoms: C_6  and  N_7 
ROOT
ATOM      1  C   UNL d   1      79.592  75.197  91.400  0.00  0.00     0.091 C 
ATOM      2  C   UNL d   1      79.400  76.412  92.310  0.00  0.00    -0.077 C 
ATOM      3  C   UNL d   1      79.207  77.624  93.231  0.00  0.00    -0.024 C 
ENDROOT
BRANCH   3   4
ATOM      4  C   UNL d   1      79.019  78.835  94.157  0.00  0.00    -0.049 C 
BRANCH   4   5
ATOM      5  C   UNL d   1      78.839  80.014  95.045  0.00  0.00     0.214 C 
ATOM      6  C   UNL d   1      78.130  79.604  96.290  0.00  0.00     0.102 C 
ATOM      7  N   UNL d   1      77.570  79.274  97.255  0.00  0.00    -0.194 NA
BRANCH   5   8
ATOM      8  C   UNL d   1      78.037  81.000  94.300  0.00  0.00     0.003 C 
BRANCH   8   9
ATOM      9  N   UNL d   1      77.290  81.961  93.575  0.00  0.00    -0.174 N 
ATOM     10  C   UNL d   1      76.535  82.958  94.128  0.00  0.00     0.210 A 
ATOM     11  N   UNL d   1      75.967  83.656  93.171  0.00  0.00    -0.200 NA
ATOM     12  C   UNL d   1      76.415  83.038  92.034  0.00  0.00     0.222 A 
ATOM     13  N   UNL d   1      77.222  81.992  92.238  0.00  0.00    -0.134 NA
ENDBRANCH   8   9
ENDBRANCH   5   8
BRANCH   5  14
ATOM     14  C   UNL d   1      80.197  80.613  95.427  0.00  0.00     0.014 A 
ATOM     15  C   UNL d   1      81.394  80.082  94.923  0.00  0.00    -0.001 A 
ATOM     16  C   UNL d   1      82.632  80.587  95.318  0.00  0.00     0.011 A 
ATOM     17  C   UNL d   1      82.684  81.624  96.243  0.00  0.00     0.058 A 
ATOM     18  C   UNL d   1      81.517  82.155  96.778  0.00  0.00     0.011 A 
ATOM     19 CL   UNL d   1      84.204  82.252  96.727  0.00  0.00    -0.082 Cl
ATOM     20  C   UNL d   1      80.285  81.643  96.376  0.00  0.00    -0.001 A 
ENDBRANCH   5  14
ENDBRANCH   4   5
ENDBRANCH   3   4
TORSDOF 5
ENDMDL
MODEL 15
REMARK VINA RESULT:      -4.8     10.586     12.765
REMARK  5 active torsions:
REMARK  status: ('A' for Active; 'I' for Inactive)
REMARK    1  A    between atoms: C_3  and  C_4 
REMARK    2  A    between atoms: C_4  and  C_5 
REMARK    3  A    between atoms: C_5  and  C_6 
REMARK    4  A    between atoms: C_5  and  C_14 
REMARK    5  A    between atoms: C_6  and  N_7 
ROOT
ATOM      1  C   UNL d   1      80.344  75.602  90.785  0.00  0.00     0.091 C 
ATOM      2  C   UNL d   1      80.574  76.404  92.068  0.00  0.00    -0.077 C 
ATOM      3  C   UNL d   1      80.804  77.198  93.359  0.00  0.00    -0.024 C 
ENDROOT
BRANCH   3   4
ATOM      4  C   UNL d   1      81.040  77.990  94.655  0.00  0.00    -0.049 C 
BRANCH   4   5
ATOM      5  C   UNL d   1      81.257  78.760  95.908  0.00  0.00     0.214 C 
ATOM      6  C   UNL d   1      80.232  79.837  96.023  0.00  0.00     0.102 C 
ATOM      7  N   UNL d   1      79.432  80.677  96.099  0.00  0.00    -0.194 NA
BRANCH   5   8
ATOM      8  C   UNL d   1      82.607  79.345  95.830  0.00  0.00     0.003 C 
BRANCH   8   9
ATOM      9  N   UNL d   1      83.896  79.926  95.731  0.00  0.00    -0.174 N 
ATOM     10  C   UNL d   1      84.817  79.646  94.760  0.00  0.00     0.210 A 
ATOM     11  N   UNL d   1      85.907  80.346  94.978  0.00  0.00    -0.200 NA
ATOM     12  C   UNL d   1      85.595  81.052  96.110  0.00  0.00     0.222 A 
ATOM     13  N   UNL d   1      84.376  80.817  96.606  0.00  0.00    -0.134 NA
ENDBRANCH   8   9
ENDBRANCH   5   8
BRANCH   5  14
ATOM     14  C   UNL d   1      81.146  77.842  97.131  0.00  0.00     0.014 A 
ATOM     15  C   UNL d   1      80.570  78.292  98.328  0.00  0.00    -0.001 A 
ATOM     16  C   UNL d   1      80.524  77.479  99.459  0.00  0.00     0.011 A 
ATOM     17  C   UNL d   1      81.076  76.204  99.407  0.00  0.00     0.058 A 
ATOM     18  C   UNL d   1      81.674  75.738  98.243  0.00  0.00     0.011 A 
ATOM     19 CL   UNL d   1      81.016  75.198 100.795  0.00  0.00    -0.082 Cl
ATOM     20  C   UNL d   1      81.714  76.559  97.119  0.00  0.00    -0.001 A 
ENDBRANCH   5  14
ENDBRANCH   4   5
ENDBRANCH   3   4
TORSDOF 5
ENDMDL
MODEL 16
REMARK VINA RESULT:      -4.7     20.805     23.919
REMARK  5 active torsions:
REMARK  status: ('A' for Active; 'I' for Inactive)
REMARK    1  A    between atoms: C_3  and  C_4 
REMARK    2  A    between atoms: C_4  and  C_5 
REMARK    3  A    between atoms: C_5  and  C_6 
REMARK    4  A    between atoms: C_5  and  C_14 
REMARK    5  A    between atoms: C_6  and  N_7 
ROOT
ATOM      1  C   UNL d   1      65.721  83.491  91.072  0.00  0.00     0.091 C 
ATOM      2  C   UNL d   1      65.135  84.853  91.453  0.00  0.00    -0.077 C 
ATOM      3  C   UNL d   1      64.539  86.213  91.838  0.00  0.00    -0.024 C 
ENDROOT
BRANCH   3   4
ATOM      4  C   UNL d   1      63.939  87.572  92.229  0.00  0.00    -0.049 C 
BRANCH   4   5
ATOM      5  C   UNL d   1      63.354  88.882  92.616  0.00  0.00     0.214 C 
ATOM      6  C   UNL d   1      63.499  89.852  91.493  0.00  0.00     0.102 C 
ATOM      7  N   UNL d   1      63.622  90.601  90.612  0.00  0.00    -0.194 NA
BRANCH   5   8
ATOM      8  C   UNL d   1      64.094  89.357  93.799  0.00  0.00     0.003 C 
BRANCH   8   9
ATOM      9  N   UNL d   1      64.780  89.827  94.946  0.00  0.00    -0.174 N 
ATOM     10  C   UNL d   1      65.853  90.675  94.933  0.00  0.00     0.210 A 
ATOM     11  N   UNL d   1      66.252  90.892  96.166  0.00  0.00    -0.200 NA
ATOM     12  C   UNL d   1      65.375  90.143  96.906  0.00  0.00     0.222 A 
ATOM     13  N   UNL d   1      64.464  89.471  96.197  0.00  0.00    -0.134 NA
ENDBRANCH   8   9
ENDBRANCH   5   8
BRANCH   5  14
ATOM     14  C   UNL d   1      61.864  88.731  92.946  0.00  0.00     0.014 A 
ATOM     15  C   UNL d   1      61.302  89.352  94.072  0.00  0.00    -0.001 A 
ATOM     16  C   UNL d   1      59.962  89.165  94.407  0.00  0.00     0.011 A 
ATOM     17  C   UNL d   1      59.171  88.332  93.624  0.00  0.00     0.058 A 
ATOM     18  C   UNL d   1      59.705  87.684  92.516  0.00  0.00     0.011 A 
ATOM     19 CL   UNL d   1      57.521  88.103  94.029  0.00  0.00    -0.082 Cl
ATOM     20  C   UNL d   1      61.045  87.879  92.190  0.00  0.00    -0.001 A 
ENDBRANCH   5  14
ENDBRANCH   4   5
ENDBRANCH   3   4
TORSDOF 5
ENDMDL
MODEL 17
REMARK VINA RESULT:      -4.7      9.743     12.529
REMARK  5 active torsions:
REMARK  status: ('A' for Active; 'I' for Inactive)
REMARK    1  A    between atoms: C_3  and  C_4 
REMARK    2  A    between atoms: C_4  and  C_5 
REMARK    3  A    between atoms: C_5  and  C_6 
REMARK    4  A    between atoms: C_5  and  C_14 
REMARK    5  A    between atoms: C_6  and  N_7 
ROOT
ATOM      1  C   UNL d   1      79.481  75.175  90.610  0.00  0.00     0.091 C 
ATOM      2  C   UNL d   1      79.756  76.120  91.781  0.00  0.00    -0.077 C 
ATOM      3  C   UNL d   1      80.030  77.059  92.963  0.00  0.00    -0.024 C 
ENDROOT
BRANCH   3   4
ATOM      4  C   UNL d   1      80.308  77.995  94.149  0.00  0.00    -0.049 C 
BRANCH   4   5
ATOM      5  C   UNL d   1      80.586  78.905  95.291  0.00  0.00     0.214 C 
ATOM      6  C   UNL d   1      80.515  78.145  96.572  0.00  0.00     0.102 C 
ATOM      7  N   UNL d   1      80.450  77.543  97.565  0.00  0.00    -0.194 NA
BRANCH   5   8
ATOM      8  C   UNL d   1      79.559  79.961  95.266  0.00  0.00     0.003 C 
BRANCH   8   9
ATOM      9  N   UNL d   1      78.592  80.997  95.243  0.00  0.00    -0.174 N 
ATOM     10  C   UNL d   1      78.235  81.770  96.313  0.00  0.00     0.210 A 
ATOM     11  N   UNL d   1      77.304  82.620  95.945  0.00  0.00    -0.200 NA
ATOM     12  C   UNL d   1      77.126  82.324  94.619  0.00  0.00     0.222 A 
ATOM     13  N   UNL d   1      77.890  81.331  94.153  0.00  0.00    -0.134 NA
ENDBRANCH   8   9
ENDBRANCH   5   8
BRANCH   5  14
ATOM     14  C   UNL d   1      81.984  79.521  95.162  0.00  0.00     0.014 A 
ATOM     15  C   UNL d   1      82.314  80.355  94.083  0.00  0.00    -0.001 A 
ATOM     16  C   UNL d   1      83.603  80.865  93.932  0.00  0.00     0.011 A 
ATOM     17  C   UNL d   1      84.585  80.526  94.855  0.00  0.00     0.058 A 
ATOM     18  C   UNL d   1      84.295  79.684  95.921  0.00  0.00     0.011 A 
ATOM     19 CL   UNL d   1      86.170  81.156  94.676  0.00  0.00    -0.082 Cl
ATOM     20  C   UNL d   1      83.004  79.180  96.063  0.00  0.00    -0.001 A 
ENDBRANCH   5  14
ENDBRANCH   4   5
ENDBRANCH   3   4
TORSDOF 5
ENDMDL
MODEL 18
REMARK VINA RESULT:      -4.7     22.143     24.384
REMARK  5 active torsions:
REMARK  status: ('A' for Active; 'I' for Inactive)
REMARK    1  A    between atoms: C_3  and  C_4 
REMARK    2  A    between atoms: C_4  and  C_5 
REMARK    3  A    between atoms: C_5  and  C_6 
REMARK    4  A    between atoms: C_5  and  C_14 
REMARK    5  A    between atoms: C_6  and  N_7 
ROOT
ATOM      1  C   UNL d   1      62.175  85.311  98.354  0.00  0.00     0.091 C 
ATOM      2  C   UNL d   1      62.110  85.874  96.933  0.00  0.00    -0.077 C 
ATOM      3  C   UNL d   1      62.053  86.431  95.505  0.00  0.00    -0.024 C 
ENDROOT
BRANCH   3   4
ATOM      4  C   UNL d   1      61.996  86.983  94.073  0.00  0.00    -0.049 C 
BRANCH   4   5
ATOM      5  C   UNL d   1      61.938  87.528  92.690  0.00  0.00     0.214 C 
ATOM      6  C   UNL d   1      62.565  86.563  91.742  0.00  0.00     0.102 C 
ATOM      7  N   UNL d   1      63.061  85.807  91.011  0.00  0.00    -0.194 NA
BRANCH   5   8
ATOM      8  C   UNL d   1      62.682  88.799  92.692  0.00  0.00     0.003 C 
BRANCH   8   9
ATOM      9  N   UNL d   1      63.373  90.037  92.686  0.00  0.00    -0.174 N 
ATOM     10  C   UNL d   1      64.018  90.589  93.758  0.00  0.00     0.210 A 
ATOM     11  N   UNL d   1      64.536  91.744  93.408  0.00  0.00    -0.200 NA
ATOM     12  C   UNL d   1      64.176  91.853  92.091  0.00  0.00     0.222 A 
ATOM     13  N   UNL d   1      63.457  90.833  91.613  0.00  0.00    -0.134 NA
ENDBRANCH   8   9
ENDBRANCH   5   8
BRANCH   5  14
ATOM     14  C   UNL d   1      60.485  87.763  92.265  0.00  0.00     0.014 A 
ATOM     15  C   UNL d   1      59.574  88.409  93.114  0.00  0.00    -0.001 A 
ATOM     16  C   UNL d   1      58.237  88.568  92.753  0.00  0.00     0.011 A 
ATOM     17  C   UNL d   1      57.792  88.062  91.537  0.00  0.00     0.058 A 
ATOM     18  C   UNL d   1      58.664  87.396  90.685  0.00  0.00     0.011 A 
ATOM     19 CL   UNL d   1      56.149  88.261  91.087  0.00  0.00    -0.082 Cl
ATOM     20  C   UNL d   1      59.998  87.243  91.055  0.00  0.00    -0.001 A 
ENDBRANCH   5  14
ENDBRANCH   4   5
ENDBRANCH   3   4
TORSDOF 5
ENDMDL
MODEL 19
REMARK VINA RESULT:      -4.7      3.795      5.711
REMARK  5 active torsions:
REMARK  status: ('A' for Active; 'I' for Inactive)
REMARK    1  A    between atoms: C_3  and  C_4 
REMARK    2  A    between atoms: C_4  and  C_5 
REMARK    3  A    between atoms: C_5  and  C_6 
REMARK    4  A    between atoms: C_5  and  C_14 
REMARK    5  A    between atoms: C_6  and  N_7 
ROOT
ATOM      1  C   UNL d   1      74.181  68.039  96.143  0.00  0.00     0.091 C 
ATOM      2  C   UNL d   1      75.150  68.227  94.974  0.00  0.00    -0.077 C 
ATOM      3  C   UNL d   1      76.127  68.423  93.808  0.00  0.00    -0.024 C 
ENDROOT
BRANCH   3   4
ATOM      4  C   UNL d   1      77.110  68.620  92.644  0.00  0.00    -0.049 C 
BRANCH   4   5
ATOM      5  C   UNL d   1      78.069  68.806  91.523  0.00  0.00     0.214 C 
ATOM      6  C   UNL d   1      79.396  69.223  92.059  0.00  0.00     0.102 C 
ATOM      7  N   UNL d   1      80.425  69.554  92.487  0.00  0.00    -0.194 NA
BRANCH   5   8
ATOM      8  C   UNL d   1      77.518  69.856  90.649  0.00  0.00     0.003 C 
BRANCH   8   9
ATOM      9  N   UNL d   1      76.987  70.846  89.785  0.00  0.00    -0.174 N 
ATOM     10  C   UNL d   1      77.033  70.812  88.419  0.00  0.00     0.210 A 
ATOM     11  N   UNL d   1      76.463  71.892  87.936  0.00  0.00    -0.200 NA
ATOM     12  C   UNL d   1      76.075  72.564  89.065  0.00  0.00     0.222 A 
ATOM     13  N   UNL d   1      76.384  71.961  90.217  0.00  0.00    -0.134 NA
ENDBRANCH   8   9
ENDBRANCH   5   8
BRANCH   5  14
ATOM     14  C   UNL d   1      78.243  67.500  90.741  0.00  0.00     0.014 A 
ATOM     15  C   UNL d   1      78.476  66.283  91.399  0.00  0.00    -0.001 A 
ATOM     16  C   UNL d   1      78.696  65.106  90.686  0.00  0.00     0.011 A 
ATOM     17  C   UNL d   1      78.702  65.139  89.296  0.00  0.00     0.058 A 
ATOM     18  C   UNL d   1      78.497  66.332  88.615  0.00  0.00     0.011 A 
ATOM     19 CL   UNL d   1      78.966  63.692  88.415  0.00  0.00    -0.082 Cl
ATOM     20  C   UNL d   1      78.279  67.503  89.338  0.00  0.00    -0.001 A 
ENDBRANCH   5  14
ENDBRANCH   4   5
ENDBRANCH   3   4
TORSDOF 5
ENDMDL
MODEL 20
REMARK VINA RESULT:      -4.6     17.618     20.013
REMARK  5 active torsions:
REMARK  status: ('A' for Active; 'I' for Inactive)
REMARK    1  A    between atoms: C_3  and  C_4 
REMARK    2  A    between atoms: C_4  and  C_5 
REMARK    3  A    between atoms: C_5  and  C_6 
REMARK    4  A    between atoms: C_5  and  C_14 
REMARK    5  A    between atoms: C_6  and  N_7 
ROOT
ATOM      1  C   UNL d   1      54.721  73.385  96.760  0.00  0.00     0.091 C 
ATOM      2  C   UNL d   1      55.713  74.234  95.962  0.00  0.00    -0.077 C 
ATOM      3  C   UNL d   1      56.715  75.082  95.169  0.00  0.00    -0.024 C 
ENDROOT
BRANCH   3   4
ATOM      4  C   UNL d   1      57.724  75.926  94.375  0.00  0.00    -0.049 C 
BRANCH   4   5
ATOM      5  C   UNL d   1      58.707  76.743  93.615  0.00  0.00     0.214 C 
ATOM      6  C   UNL d   1      59.336  77.746  94.520  0.00  0.00     0.102 C 
ATOM      7  N   UNL d   1      59.816  78.528  95.234  0.00  0.00    -0.194 NA
BRANCH   5   8
ATOM      8  C   UNL d   1      57.967  77.421  92.536  0.00  0.00     0.003 C 
BRANCH   8   9
ATOM      9  N   UNL d   1      57.239  78.048  91.494  0.00  0.00    -0.174 N 
ATOM     10  C   UNL d   1      56.836  77.443  90.336  0.00  0.00     0.210 A 
ATOM     11  N   UNL d   1      56.201  78.315  89.587  0.00  0.00    -0.200 NA
ATOM     12  C   UNL d   1      56.240  79.455  90.346  0.00  0.00     0.222 A 
ATOM     13  N   UNL d   1      56.874  79.335  91.516  0.00  0.00    -0.134 NA
ENDBRANCH   8   9
ENDBRANCH   5   8
BRANCH   5  14
ATOM     14  C   UNL d   1      59.807  75.852  93.027  0.00  0.00     0.014 A 
ATOM     15  C   UNL d   1      60.774  76.371  92.154  0.00  0.00    -0.001 A 
ATOM     16  C   UNL d   1      61.737  75.550  91.571  0.00  0.00     0.011 A 
ATOM     17  C   UNL d   1      61.729  74.187  91.842  0.00  0.00     0.058 A 
ATOM     18  C   UNL d   1      60.769  73.638  92.684  0.00  0.00     0.011 A 
ATOM     19 CL   UNL d   1      62.915  73.173  91.131  0.00  0.00    -0.082 Cl
ATOM     20  C   UNL d   1      59.812  74.468  93.262  0.00  0.00    -0.001 A 
ENDBRANCH   5  14
ENDBRANCH   4   5
ENDBRANCH   3   4
TORSDOF 5
ENDMDL
