MODEL 1
REMARK VINA RESULT:      -6.9      0.000      0.000
REMARK  4 active torsions:
REMARK  status: ('A' for Active; 'I' for Inactive)
REMARK       I    between atoms: C_1  and  N_3 
REMARK    1  A    between atoms: C_15  and  C_1 
REMARK    2  A    between atoms: CA_4  and  C_5 
REMARK    3  A    between atoms: CA_4  and  CB_8 
REMARK    4  A    between atoms: CB_8  and  CG_9 
ROOT
ATOM      1  C   UNK d   0      75.918  69.798  88.694  0.00  0.00     0.280 C 
ATOM      2  O   UNK d   0      74.763  69.496  88.392  0.00  0.00    -0.265 OA
ATOM      3  N   PHE d   1      76.412  70.957  89.141  0.00  0.00    -0.194 NA
ATOM      4  CA  PHE d   1      75.641  71.681  89.998  0.00  0.00     0.183 C 
ENDROOT
BRANCH   1   5
ATOM      5  C   UNK d   0      77.003  68.805  88.444  0.00  0.00     0.058 A 
ATOM      6  C   UNK d   0      78.173  68.698  89.291  0.00  0.00     0.005 A 
ATOM      7  C   UNK d   0      79.070  67.452  89.492  0.00  0.00    -0.001 A 
ATOM      8  C   UNK d   0      78.862  66.183  88.835  0.00  0.00    -0.008 A 
ATOM      9  C   UNK d   0      77.724  66.280  87.954  0.00  0.00    -0.001 A 
ATOM     10  C   UNK d   0      79.599  64.984  89.108  0.00  0.00    -0.044 C 
ATOM     11  C   UNK d   0      76.843  67.540  87.757  0.00  0.00     0.005 A 
ATOM     12  C   UNK d   0      80.832  64.944  89.997  0.00  0.00     0.026 C 
ATOM     13  C   UNK d   0      79.267  63.636  88.490  0.00  0.00     0.026 C 
ENDBRANCH   1   5
BRANCH   4  14
ATOM     14  C   PHE d   1      74.358  71.226  90.781  0.00  0.00     0.237 C 
ATOM     15  O   PHE d   1      73.402  72.069  90.802  0.00  0.00    -0.642 OA
ATOM     16  OXT PHE d   1      74.476  70.159  91.466  0.00  0.00    -0.642 OA
ENDBRANCH   4  14
BRANCH   4  17
ATOM     17  CB  PHE d   1      76.112  73.004  90.267  0.00  0.00    -0.076 C 
BRANCH  17  18
ATOM     18  CG  PHE d   1      76.589  74.302  90.600  0.00  0.00     0.036 A 
ATOM     19  CD1 PHE d   1      77.944  74.600  90.481  0.00  0.00     0.008 A 
ATOM     20  CE1 PHE d   1      78.403  75.876  90.807  0.00  0.00     0.001 A 
ATOM     21  CZ  PHE d   1      77.509  76.847  91.250  0.00  0.00     0.000 A 
ATOM     22  CE2 PHE d   1      76.154  76.546  91.367  0.00  0.00     0.001 A 
ATOM     23  CD2 PHE d   1      75.694  75.273  91.042  0.00  0.00     0.008 A 
ENDBRANCH  17  18
ENDBRANCH   4  17
TORSDOF 4
ENDMDL
MODEL 2
REMARK VINA RESULT:      -6.7      8.025     12.530
REMARK  4 active torsions:
REMARK  status: ('A' for Active; 'I' for Inactive)
REMARK       I    between atoms: C_1  and  N_3 
REMARK    1  A    between atoms: C_15  and  C_1 
REMARK    2  A    between atoms: CA_4  and  C_5 
REMARK    3  A    between atoms: CA_4  and  CB_8 
REMARK    4  A    between atoms: CB_8  and  CG_9 
ROOT
ATOM      1  C   UNK d   0      78.295  81.015  94.600  0.00  0.00     0.280 C 
ATOM      2  O   UNK d   0      77.675  82.036  94.899  0.00  0.00    -0.265 OA
ATOM      3  N   PHE d   1      77.912  79.966  93.865  0.00  0.00    -0.194 NA
ATOM      4  CA  PHE d   1      77.122  80.209  92.783  0.00  0.00     0.183 C 
ENDROOT
BRANCH   1   5
ATOM      5  C   UNK d   0      79.641  80.795  95.203  0.00  0.00     0.058 A 
ATOM      6  C   UNK d   0      80.746  80.227  94.459  0.00  0.00     0.005 A 
ATOM      7  C   UNK d   0      82.257  80.419  94.738  0.00  0.00    -0.001 A 
ATOM      8  C   UNK d   0      82.791  81.212  95.819  0.00  0.00    -0.008 A 
ATOM      9  C   UNK d   0      81.706  81.755  96.598  0.00  0.00    -0.001 A 
ATOM     10  C   UNK d   0      84.181  81.510  96.013  0.00  0.00    -0.044 C 
ATOM     11  C   UNK d   0      80.198  81.543  96.311  0.00  0.00     0.005 A 
ATOM     12  C   UNK d   0      85.295  80.864  95.205  0.00  0.00     0.026 C 
ATOM     13  C   UNK d   0      84.695  82.454  97.088  0.00  0.00     0.026 C 
ENDBRANCH   1   5
BRANCH   4  14
ATOM     14  C   PHE d   1      76.817  81.581  92.084  0.00  0.00     0.237 C 
ATOM     15  O   PHE d   1      75.629  82.019  92.236  0.00  0.00    -0.642 OA
ATOM     16  OXT PHE d   1      77.715  82.013  91.292  0.00  0.00    -0.642 OA
ENDBRANCH   4  14
BRANCH   4  17
ATOM     17  CB  PHE d   1      76.562  79.046  92.168  0.00  0.00    -0.076 C 
BRANCH  17  18
ATOM     18  CG  PHE d   1      76.045  77.850  91.595  0.00  0.00     0.036 A 
ATOM     19  CD1 PHE d   1      74.693  77.756  91.277  0.00  0.00     0.008 A 
ATOM     20  CE1 PHE d   1      74.194  76.583  90.714  0.00  0.00     0.001 A 
ATOM     21  CZ  PHE d   1      75.046  75.508  90.473  0.00  0.00     0.000 A 
ATOM     22  CE2 PHE d   1      76.399  75.604  90.792  0.00  0.00     0.001 A 
ATOM     23  CD2 PHE d   1      76.899  76.776  91.354  0.00  0.00     0.008 A 
ENDBRANCH  17  18
ENDBRANCH   4  17
TORSDOF 4
ENDMDL
MODEL 3
REMARK VINA RESULT:      -6.7     11.885     14.145
REMARK  4 active torsions:
REMARK  status: ('A' for Active; 'I' for Inactive)
REMARK       I    between atoms: C_1  and  N_3 
REMARK    1  A    between atoms: C_15  and  C_1 
REMARK    2  A    between atoms: CA_4  and  C_5 
REMARK    3  A    between atoms: CA_4  and  CB_8 
REMARK    4  A    between atoms: CB_8  and  CG_9 
ROOT
ATOM      1  C   UNK d   0      64.027  73.506  90.968  0.00  0.00     0.280 C 
ATOM      2  O   UNK d   0      63.753  73.065  89.851  0.00  0.00    -0.265 OA
ATOM      3  N   PHE d   1      64.883  74.470  91.321  0.00  0.00    -0.194 NA
ATOM      4  CA  PHE d   1      64.991  75.549  90.497  0.00  0.00     0.183 C 
ENDROOT
BRANCH   1   5
ATOM      5  C   UNK d   0      63.437  72.837  92.163  0.00  0.00     0.058 A 
ATOM      6  C   UNK d   0      64.247  72.195  93.177  0.00  0.00     0.005 A 
ATOM      7  C   UNK d   0      63.867  71.947  94.658  0.00  0.00    -0.001 A 
ATOM      8  C   UNK d   0      62.608  72.329  95.251  0.00  0.00    -0.008 A 
ATOM      9  C   UNK d   0      61.769  72.935  94.247  0.00  0.00    -0.001 A 
ATOM     10  C   UNK d   0      62.290  72.229  96.646  0.00  0.00    -0.044 C 
ATOM     11  C   UNK d   0      62.161  73.165  92.765  0.00  0.00     0.005 A 
ATOM     12  C   UNK d   0      63.181  71.524  97.657  0.00  0.00     0.026 C 
ATOM     13  C   UNK d   0      61.003  72.759  97.254  0.00  0.00     0.026 C 
ENDBRANCH   1   5
BRANCH   4  14
ATOM     14  C   PHE d   1      64.044  75.980  89.322  0.00  0.00     0.237 C 
ATOM     15  O   PHE d   1      64.512  75.801  88.149  0.00  0.00    -0.642 OA
ATOM     16  OXT PHE d   1      63.002  76.630  89.658  0.00  0.00    -0.642 OA
ENDBRANCH   4  14
BRANCH   4  17
ATOM     17  CB  PHE d   1      66.071  76.436  90.800  0.00  0.00    -0.076 C 
BRANCH  17  18
ATOM     18  CG  PHE d   1      67.129  77.355  91.046  0.00  0.00     0.036 A 
ATOM     19  CD1 PHE d   1      68.371  76.892  91.475  0.00  0.00     0.008 A 
ATOM     20  CE1 PHE d   1      69.403  77.798  91.712  0.00  0.00     0.001 A 
ATOM     21  CZ  PHE d   1      69.191  79.162  91.522  0.00  0.00     0.000 A 
ATOM     22  CE2 PHE d   1      67.948  79.622  91.093  0.00  0.00     0.001 A 
ATOM     23  CD2 PHE d   1      66.916  78.718  90.855  0.00  0.00     0.008 A 
ENDBRANCH  17  18
ENDBRANCH   4  17
TORSDOF 4
ENDMDL
MODEL 4
REMARK VINA RESULT:      -6.6      3.256      4.669
REMARK  4 active torsions:
REMARK  status: ('A' for Active; 'I' for Inactive)
REMARK       I    between atoms: C_1  and  N_3 
REMARK    1  A    between atoms: C_15  and  C_1 
REMARK    2  A    between atoms: CA_4  and  C_5 
REMARK    3  A    between atoms: CA_4  and  CB_8 
REMARK    4  A    between atoms: CB_8  and  CG_9 
ROOT
ATOM      1  C   UNK d   0      75.758  71.860  91.525  0.00  0.00     0.280 C 
ATOM      2  O   UNK d   0      76.614  72.061  92.388  0.00  0.00    -0.265 OA
ATOM      3  N   PHE d   1      74.617  72.512  91.283  0.00  0.00    -0.194 NA
ATOM      4  CA  PHE d   1      74.616  73.864  91.448  0.00  0.00     0.183 C 
ENDROOT
BRANCH   1   5
ATOM      5  C   UNK d   0      75.893  70.658  90.653  0.00  0.00     0.058 A 
ATOM      6  C   UNK d   0      76.027  70.748  89.213  0.00  0.00     0.005 A 
ATOM      7  C   UNK d   0      76.681  69.710  88.268  0.00  0.00    -0.001 A 
ATOM      8  C   UNK d   0      77.261  68.463  88.705  0.00  0.00    -0.008 A 
ATOM      9  C   UNK d   0      77.102  68.333  90.133  0.00  0.00    -0.001 A 
ATOM     10  C   UNK d   0      77.987  67.554  87.866  0.00  0.00    -0.044 C 
ATOM     11  C   UNK d   0      76.434  69.378  91.062  0.00  0.00     0.005 A 
ATOM     12  C   UNK d   0      78.074  67.699  86.355  0.00  0.00     0.026 C 
ATOM     13  C   UNK d   0      78.694  66.314  88.387  0.00  0.00     0.026 C 
ENDBRANCH   1   5
BRANCH   4  14
ATOM     14  C   PHE d   1      75.844  74.829  91.608  0.00  0.00     0.237 C 
ATOM     15  O   PHE d   1      75.994  75.336  92.768  0.00  0.00    -0.642 OA
ATOM     16  OXT PHE d   1      76.441  75.151  90.530  0.00  0.00    -0.642 OA
ENDBRANCH   4  14
BRANCH   4  17
ATOM     17  CB  PHE d   1      73.328  74.480  91.395  0.00  0.00    -0.076 C 
BRANCH  17  18
ATOM     18  CG  PHE d   1      72.066  75.138  91.388  0.00  0.00     0.036 A 
ATOM     19  CD1 PHE d   1      70.937  74.488  91.880  0.00  0.00     0.008 A 
ATOM     20  CE1 PHE d   1      69.705  75.141  91.873  0.00  0.00     0.001 A 
ATOM     21  CZ  PHE d   1      69.604  76.437  91.373  0.00  0.00     0.000 A 
ATOM     22  CE2 PHE d   1      70.736  77.084  90.882  0.00  0.00     0.001 A 
ATOM     23  CD2 PHE d   1      71.967  76.434  90.889  0.00  0.00     0.008 A 
ENDBRANCH  17  18
ENDBRANCH   4  17
TORSDOF 4
ENDMDL
MODEL 5
REMARK VINA RESULT:      -6.6     12.938     14.404
REMARK  4 active torsions:
REMARK  status: ('A' for Active; 'I' for Inactive)
REMARK       I    between atoms: C_1  and  N_3 
REMARK    1  A    between atoms: C_15  and  C_1 
REMARK    2  A    between atoms: CA_4  and  C_5 
REMARK    3  A    between atoms: CA_4  and  CB_8 
REMARK    4  A    between atoms: CB_8  and  CG_9 
ROOT
ATOM      1  C   UNK d   0      78.202  82.091  96.443  0.00  0.00     0.280 C 
ATOM      2  O   UNK d   0      77.846  82.757  97.416  0.00  0.00    -0.265 OA
ATOM      3  N   PHE d   1      79.432  81.771  96.029  0.00  0.00    -0.194 NA
ATOM      4  CA  PHE d   1      80.367  81.501  96.981  0.00  0.00     0.183 C 
ENDROOT
BRANCH   1   5
ATOM      5  C   UNK d   0      77.165  81.634  95.474  0.00  0.00     0.058 A 
ATOM      6  C   UNK d   0      75.815  81.298  95.875  0.00  0.00     0.005 A 
ATOM      7  C   UNK d   0      74.542  81.329  94.993  0.00  0.00    -0.001 A 
ATOM      8  C   UNK d   0      74.526  81.703  93.599  0.00  0.00    -0.008 A 
ATOM      9  C   UNK d   0      75.870  82.003  93.167  0.00  0.00    -0.001 A 
ATOM     10  C   UNK d   0      73.344  81.866  92.803  0.00  0.00    -0.044 C 
ATOM     11  C   UNK d   0      77.134  81.956  94.062  0.00  0.00     0.005 A 
ATOM     12  C   UNK d   0      71.955  81.477  93.282  0.00  0.00     0.026 C 
ATOM     13  C   UNK d   0      73.358  82.386  91.376  0.00  0.00     0.026 C 
ENDBRANCH   1   5
BRANCH   4  14
ATOM     14  C   PHE d   1      80.151  81.225  98.512  0.00  0.00     0.237 C 
ATOM     15  O   PHE d   1      80.612  82.117  99.298  0.00  0.00    -0.642 OA
ATOM     16  OXT PHE d   1      79.718  80.066  98.811  0.00  0.00    -0.642 OA
ENDBRANCH   4  14
BRANCH   4  17
ATOM     17  CB  PHE d   1      81.707  81.385  96.498  0.00  0.00    -0.076 C 
BRANCH  17  18
ATOM     18  CG  PHE d   1      83.020  81.224  95.973  0.00  0.00     0.036 A 
ATOM     19  CD1 PHE d   1      84.124  81.647  96.710  0.00  0.00     0.008 A 
ATOM     20  CE1 PHE d   1      85.407  81.483  96.189  0.00  0.00     0.001 A 
ATOM     21  CZ  PHE d   1      85.582  80.900  94.937  0.00  0.00     0.000 A 
ATOM     22  CE2 PHE d   1      84.476  80.478  94.203  0.00  0.00     0.001 A 
ATOM     23  CD2 PHE d   1      83.194  80.640  94.721  0.00  0.00     0.008 A 
ENDBRANCH  17  18
ENDBRANCH   4  17
TORSDOF 4
ENDMDL
MODEL 6
REMARK VINA RESULT:      -6.6      4.532     10.767
REMARK  4 active torsions:
REMARK  status: ('A' for Active; 'I' for Inactive)
REMARK       I    between atoms: C_1  and  N_3 
REMARK    1  A    between atoms: C_15  and  C_1 
REMARK    2  A    between atoms: CA_4  and  C_5 
REMARK    3  A    between atoms: CA_4  and  CB_8 
REMARK    4  A    between atoms: CB_8  and  CG_9 
ROOT
ATOM      1  C   UNK d   0      79.370  64.904  89.441  0.00  0.00     0.280 C 
ATOM      2  O   UNK d   0      80.232  65.149  90.287  0.00  0.00    -0.265 OA
ATOM      3  N   PHE d   1      79.267  63.871  88.599  0.00  0.00    -0.194 NA
ATOM      4  CA  PHE d   1      79.648  62.646  89.055  0.00  0.00     0.183 C 
ENDROOT
BRANCH   1   5
ATOM      5  C   UNK d   0      78.312  65.923  89.184  0.00  0.00     0.058 A 
ATOM      6  C   UNK d   0      78.322  67.231  89.805  0.00  0.00     0.005 A 
ATOM      7  C   UNK d   0      77.654  68.523  89.273  0.00  0.00    -0.001 A 
ATOM      8  C   UNK d   0      76.897  68.603  88.046  0.00  0.00    -0.008 A 
ATOM      9  C   UNK d   0      76.841  67.300  87.431  0.00  0.00    -0.001 A 
ATOM     10  C   UNK d   0      76.386  69.814  87.471  0.00  0.00    -0.044 C 
ATOM     11  C   UNK d   0      77.507  66.014  87.984  0.00  0.00     0.005 A 
ATOM     12  C   UNK d   0      76.413  71.155  88.187  0.00  0.00     0.026 C 
ATOM     13  C   UNK d   0      75.706  69.876  86.114  0.00  0.00     0.026 C 
ENDBRANCH   1   5
BRANCH   4  14
ATOM     14  C   PHE d   1      79.930  62.197  90.533  0.00  0.00     0.237 C 
ATOM     15  O   PHE d   1      81.155  61.986  90.816  0.00  0.00    -0.642 OA
ATOM     16  OXT PHE d   1      78.905  61.909  91.230  0.00  0.00    -0.642 OA
ENDBRANCH   4  14
BRANCH   4  17
ATOM     17  CB  PHE d   1      79.729  61.626  88.056  0.00  0.00    -0.076 C 
BRANCH  17  18
ATOM     18  CG  PHE d   1      79.784  60.655  87.018  0.00  0.00     0.036 A 
ATOM     19  CD1 PHE d   1      80.995  60.048  86.692  0.00  0.00     0.008 A 
ATOM     20  CE1 PHE d   1      81.040  59.096  85.675  0.00  0.00     0.001 A 
ATOM     21  CZ  PHE d   1      79.879  58.755  84.986  0.00  0.00     0.000 A 
ATOM     22  CE2 PHE d   1      78.669  59.364  85.314  0.00  0.00     0.001 A 
ATOM     23  CD2 PHE d   1      78.622  60.314  86.330  0.00  0.00     0.008 A 
ENDBRANCH  17  18
ENDBRANCH   4  17
TORSDOF 4
ENDMDL
MODEL 7
REMARK VINA RESULT:      -6.6      3.112      9.014
REMARK  4 active torsions:
REMARK  status: ('A' for Active; 'I' for Inactive)
REMARK       I    between atoms: C_1  and  N_3 
REMARK    1  A    between atoms: C_15  and  C_1 
REMARK    2  A    between atoms: CA_4  and  C_5 
REMARK    3  A    between atoms: CA_4  and  CB_8 
REMARK    4  A    between atoms: CB_8  and  CG_9 
ROOT
ATOM      1  C   UNK d   0      75.532  73.295  91.249  0.00  0.00     0.280 C 
ATOM      2  O   UNK d   0      76.257  73.816  92.097  0.00  0.00    -0.265 OA
ATOM      3  N   PHE d   1      75.732  72.201  90.506  0.00  0.00    -0.194 NA
ATOM      4  CA  PHE d   1      76.374  71.152  91.091  0.00  0.00     0.183 C 
ENDROOT
BRANCH   1   5
ATOM      5  C   UNK d   0      74.274  73.994  90.858  0.00  0.00     0.058 A 
ATOM      6  C   UNK d   0      72.964  73.532  91.269  0.00  0.00     0.005 A 
ATOM      7  C   UNK d   0      71.675  74.379  91.407  0.00  0.00    -0.001 A 
ATOM      8  C   UNK d   0      71.596  75.793  91.130  0.00  0.00    -0.008 A 
ATOM      9  C   UNK d   0      72.882  76.266  90.680  0.00  0.00    -0.001 A 
ATOM     10  C   UNK d   0      70.449  76.618  91.379  0.00  0.00    -0.044 C 
ATOM     11  C   UNK d   0      74.159  75.402  90.536  0.00  0.00     0.005 A 
ATOM     12  C   UNK d   0      69.095  76.064  91.793  0.00  0.00     0.026 C 
ATOM     13  C   UNK d   0      70.445  78.126  91.195  0.00  0.00     0.026 C 
ENDBRANCH   1   5
BRANCH   4  14
ATOM     14  C   PHE d   1      76.670  70.913  92.614  0.00  0.00     0.237 C 
ATOM     15  O   PHE d   1      77.890  71.047  92.961  0.00  0.00    -0.642 OA
ATOM     16  OXT PHE d   1      75.711  70.430  93.297  0.00  0.00    -0.642 OA
ENDBRANCH   4  14
BRANCH   4  17
ATOM     17  CB  PHE d   1      76.759  70.104  90.197  0.00  0.00    -0.076 C 
BRANCH  17  18
ATOM     18  CG  PHE d   1      77.082  69.033  89.318  0.00  0.00     0.036 A 
ATOM     19  CD1 PHE d   1      76.842  69.155  87.951  0.00  0.00     0.008 A 
ATOM     20  CE1 PHE d   1      77.163  68.102  87.096  0.00  0.00     0.001 A 
ATOM     21  CZ  PHE d   1      77.720  66.933  87.607  0.00  0.00     0.000 A 
ATOM     22  CE2 PHE d   1      77.958  66.813  88.975  0.00  0.00     0.001 A 
ATOM     23  CD2 PHE d   1      77.639  67.865  89.830  0.00  0.00     0.008 A 
ENDBRANCH  17  18
ENDBRANCH   4  17
TORSDOF 4
ENDMDL
MODEL 8
REMARK VINA RESULT:      -6.6     12.050     14.781
REMARK  4 active torsions:
REMARK  status: ('A' for Active; 'I' for Inactive)
REMARK       I    between atoms: C_1  and  N_3 
REMARK    1  A    between atoms: C_15  and  C_1 
REMARK    2  A    between atoms: CA_4  and  C_5 
REMARK    3  A    between atoms: CA_4  and  CB_8 
REMARK    4  A    between atoms: CB_8  and  CG_9 
ROOT
ATOM      1  C   UNK d   0      80.092  80.684  96.405  0.00  0.00     0.280 C 
ATOM      2  O   UNK d   0      79.823  81.617  95.648  0.00  0.00    -0.265 OA
ATOM      3  N   PHE d   1      81.179  79.907  96.453  0.00  0.00    -0.194 NA
ATOM      4  CA  PHE d   1      82.382  80.490  96.197  0.00  0.00     0.183 C 
ENDROOT
BRANCH   1   5
ATOM      5  C   UNK d   0      79.050  80.222  97.366  0.00  0.00     0.058 A 
ATOM      6  C   UNK d   0      79.175  80.400  98.798  0.00  0.00     0.005 A 
ATOM      7  C   UNK d   0      78.027  80.472  99.835  0.00  0.00    -0.001 A 
ATOM      8  C   UNK d   0      76.626  80.360  99.507  0.00  0.00    -0.008 A 
ATOM      9  C   UNK d   0      76.480  80.141  98.089  0.00  0.00    -0.001 A 
ATOM     10  C   UNK d   0      75.546  80.557 100.431  0.00  0.00    -0.044 C 
ATOM     11  C   UNK d   0      77.642  80.060  97.067  0.00  0.00     0.005 A 
ATOM     12  C   UNK d   0      75.747  80.722 101.929  0.00  0.00     0.026 C 
ATOM     13  C   UNK d   0      74.082  80.558 100.023  0.00  0.00     0.026 C 
ENDBRANCH   1   5
BRANCH   4  14
ATOM     14  C   PHE d   1      82.733  82.019  96.133  0.00  0.00     0.237 C 
ATOM     15  O   PHE d   1      82.736  82.530  94.964  0.00  0.00    -0.642 OA
ATOM     16  OXT PHE d   1      83.158  82.537  97.214  0.00  0.00    -0.642 OA
ENDBRANCH   4  14
BRANCH   4  17
ATOM     17  CB  PHE d   1      83.475  79.582  96.041  0.00  0.00    -0.076 C 
BRANCH  17  18
ATOM     18  CG  PHE d   1      84.585  78.715  95.835  0.00  0.00     0.036 A 
ATOM     19  CD1 PHE d   1      85.807  78.989  96.444  0.00  0.00     0.008 A 
ATOM     20  CE1 PHE d   1      86.889  78.134  96.239  0.00  0.00     0.001 A 
ATOM     21  CZ  PHE d   1      86.747  77.011  95.426  0.00  0.00     0.000 A 
ATOM     22  CE2 PHE d   1      85.523  76.740  94.818  0.00  0.00     0.001 A 
ATOM     23  CD2 PHE d   1      84.441  77.593  95.023  0.00  0.00     0.008 A 
ENDBRANCH  17  18
ENDBRANCH   4  17
TORSDOF 4
ENDMDL
MODEL 9
REMARK VINA RESULT:      -6.5      3.694      9.111
REMARK  4 active torsions:
REMARK  status: ('A' for Active; 'I' for Inactive)
REMARK       I    between atoms: C_1  and  N_3 
REMARK    1  A    between atoms: C_15  and  C_1 
REMARK    2  A    between atoms: CA_4  and  C_5 
REMARK    3  A    between atoms: CA_4  and  CB_8 
REMARK    4  A    between atoms: CB_8  and  CG_9 
ROOT
ATOM      1  C   UNK d   0      75.277  74.743  90.544  0.00  0.00     0.280 C 
ATOM      2  O   UNK d   0      76.063  75.665  90.326  0.00  0.00    -0.265 OA
ATOM      3  N   PHE d   1      75.339  73.460  90.174  0.00  0.00    -0.194 NA
ATOM      4  CA  PHE d   1      76.564  72.864  90.169  0.00  0.00     0.183 C 
ENDROOT
BRANCH   1   5
ATOM      5  C   UNK d   0      73.985  75.051  91.222  0.00  0.00     0.058 A 
ATOM      6  C   UNK d   0      73.333  76.339  91.110  0.00  0.00     0.005 A 
ATOM      7  C   UNK d   0      71.823  76.640  91.283  0.00  0.00    -0.001 A 
ATOM      8  C   UNK d   0      70.825  75.646  91.598  0.00  0.00    -0.008 A 
ATOM      9  C   UNK d   0      71.460  74.361  91.755  0.00  0.00    -0.001 A 
ATOM     10  C   UNK d   0      69.410  75.881  91.631  0.00  0.00    -0.044 C 
ATOM     11  C   UNK d   0      72.975  74.079  91.589  0.00  0.00     0.005 A 
ATOM     12  C   UNK d   0      68.791  77.265  91.523  0.00  0.00     0.026 C 
ATOM     13  C   UNK d   0      68.382  74.782  91.840  0.00  0.00     0.026 C 
ENDBRANCH   1   5
BRANCH   4  14
ATOM     14  C   PHE d   1      77.902  73.375  90.812  0.00  0.00     0.237 C 
ATOM     15  O   PHE d   1      78.781  73.792  89.988  0.00  0.00    -0.642 OA
ATOM     16  OXT PHE d   1      78.043  73.144  92.056  0.00  0.00    -0.642 OA
ENDBRANCH   4  14
BRANCH   4  17
ATOM     17  CB  PHE d   1      76.607  71.573  89.557  0.00  0.00    -0.076 C 
BRANCH  17  18
ATOM     18  CG  PHE d   1      76.696  70.311  88.905  0.00  0.00     0.036 A 
ATOM     19  CD1 PHE d   1      75.927  70.053  87.774  0.00  0.00     0.008 A 
ATOM     20  CE1 PHE d   1      76.022  68.815  87.140  0.00  0.00     0.001 A 
ATOM     21  CZ  PHE d   1      76.883  67.840  87.638  0.00  0.00     0.000 A 
ATOM     22  CE2 PHE d   1      77.651  68.101  88.770  0.00  0.00     0.001 A 
ATOM     23  CD2 PHE d   1      77.558  69.337  89.404  0.00  0.00     0.008 A 
ENDBRANCH  17  18
ENDBRANCH   4  17
TORSDOF 4
ENDMDL
MODEL 10
REMARK VINA RESULT:      -6.3      9.418     12.937
REMARK  4 active torsions:
REMARK  status: ('A' for Active; 'I' for Inactive)
REMARK       I    between atoms: C_1  and  N_3 
REMARK    1  A    between atoms: C_15  and  C_1 
REMARK    2  A    between atoms: CA_4  and  C_5 
REMARK    3  A    between atoms: CA_4  and  CB_8 
REMARK    4  A    between atoms: CB_8  and  CG_9 
ROOT
ATOM      1  C   UNK d   0      66.977  77.004  91.254  0.00  0.00     0.280 C 
ATOM      2  O   UNK d   0      66.707  78.019  90.610  0.00  0.00    -0.265 OA
ATOM      3  N   PHE d   1      66.163  76.102  91.810  0.00  0.00    -0.194 NA
ATOM      4  CA  PHE d   1      65.025  75.779  91.135  0.00  0.00     0.183 C 
ENDROOT
BRANCH   1   5
ATOM      5  C   UNK d   0      68.403  76.736  91.600  0.00  0.00     0.058 A 
ATOM      6  C   UNK d   0      68.915  75.399  91.818  0.00  0.00     0.005 A 
ATOM      7  C   UNK d   0      70.379  74.921  91.658  0.00  0.00    -0.001 A 
ATOM      8  C   UNK d   0      71.475  75.773  91.261  0.00  0.00    -0.008 A 
ATOM      9  C   UNK d   0      70.994  77.120  91.077  0.00  0.00    -0.001 A 
ATOM     10  C   UNK d   0      72.807  75.322  90.978  0.00  0.00    -0.044 C 
ATOM     11  C   UNK d   0      69.526  77.583  91.253  0.00  0.00     0.005 A 
ATOM     12  C   UNK d   0      73.285  73.904  91.248  0.00  0.00     0.026 C 
ATOM     13  C   UNK d   0      73.902  76.227  90.439  0.00  0.00     0.026 C 
ENDBRANCH   1   5
BRANCH   4  14
ATOM     14  C   PHE d   1      64.650  76.096  89.644  0.00  0.00     0.237 C 
ATOM     15  O   PHE d   1      63.677  76.904  89.484  0.00  0.00    -0.642 OA
ATOM     16  OXT PHE d   1      65.222  75.376  88.763  0.00  0.00    -0.642 OA
ENDBRANCH   4  14
BRANCH   4  17
ATOM     17  CB  PHE d   1      64.088  74.987  91.870  0.00  0.00    -0.076 C 
BRANCH  17  18
ATOM     18  CG  PHE d   1      63.192  74.211  92.657  0.00  0.00     0.036 A 
ATOM     19  CD1 PHE d   1      63.634  73.615  93.836  0.00  0.00     0.008 A 
ATOM     20  CE1 PHE d   1      62.750  72.859  94.603  0.00  0.00     0.001 A 
ATOM     21  CZ  PHE d   1      61.430  72.698  94.189  0.00  0.00     0.000 A 
ATOM     22  CE2 PHE d   1      60.990  73.295  93.010  0.00  0.00     0.001 A 
ATOM     23  CD2 PHE d   1      61.872  74.052  92.243  0.00  0.00     0.008 A 
ENDBRANCH  17  18
ENDBRANCH   4  17
TORSDOF 4
ENDMDL
MODEL 11
REMARK VINA RESULT:      -6.3     13.002     16.351
REMARK  4 active torsions:
REMARK  status: ('A' for Active; 'I' for Inactive)
REMARK       I    between atoms: C_1  and  N_3 
REMARK    1  A    between atoms: C_15  and  C_1 
REMARK    2  A    between atoms: CA_4  and  C_5 
REMARK    3  A    between atoms: CA_4  and  CB_8 
REMARK    4  A    between atoms: CB_8  and  CG_9 
ROOT
ATOM      1  C   UNK d   0      64.997  70.879  96.447  0.00  0.00     0.280 C 
ATOM      2  O   UNK d   0      65.834  70.202  97.045  0.00  0.00    -0.265 OA
ATOM      3  N   PHE d   1      63.739  71.179  96.784  0.00  0.00    -0.194 NA
ATOM      4  CA  PHE d   1      63.477  71.406  98.101  0.00  0.00     0.183 C 
ENDROOT
BRANCH   1   5
ATOM      5  C   UNK d   0      65.329  71.381  95.082  0.00  0.00     0.058 A 
ATOM      6  C   UNK d   0      64.316  71.654  94.083  0.00  0.00     0.005 A 
ATOM      7  C   UNK d   0      64.424  72.629  92.885  0.00  0.00    -0.001 A 
ATOM      8  C   UNK d   0      65.590  73.425  92.585  0.00  0.00    -0.008 A 
ATOM      9  C   UNK d   0      66.627  73.138  93.545  0.00  0.00    -0.001 A 
ATOM     10  C   UNK d   0      65.661  74.429  91.562  0.00  0.00    -0.044 C 
ATOM     11  C   UNK d   0      66.506  72.150  94.732  0.00  0.00     0.005 A 
ATOM     12  C   UNK d   0      64.565  74.651  90.532  0.00  0.00     0.026 C 
ATOM     13  C   UNK d   0      66.863  75.336  91.359  0.00  0.00     0.026 C 
ENDBRANCH   1   5
BRANCH   4  14
ATOM     14  C   PHE d   1      64.493  71.655  99.271  0.00  0.00     0.237 C 
ATOM     15  O   PHE d   1      65.159  72.740  99.195  0.00  0.00    -0.642 OA
ATOM     16  OXT PHE d   1      64.684  70.674 100.059  0.00  0.00    -0.642 OA
ENDBRANCH   4  14
BRANCH   4  17
ATOM     17  CB  PHE d   1      62.090  71.501  98.434  0.00  0.00    -0.076 C 
BRANCH  17  18
ATOM     18  CG  PHE d   1      60.706  71.527  98.765  0.00  0.00     0.036 A 
ATOM     19  CD1 PHE d   1      59.944  72.661  98.495  0.00  0.00     0.008 A 
ATOM     20  CE1 PHE d   1      58.589  72.678  98.820  0.00  0.00     0.001 A 
ATOM     21  CZ  PHE d   1      58.000  71.565  99.414  0.00  0.00     0.000 A 
ATOM     22  CE2 PHE d   1      58.764  70.431  99.683  0.00  0.00     0.001 A 
ATOM     23  CD2 PHE d   1      60.118  70.413  99.359  0.00  0.00     0.008 A 
ENDBRANCH  17  18
ENDBRANCH   4  17
TORSDOF 4
ENDMDL
MODEL 12
REMARK VINA RESULT:      -6.2     16.114     21.453
REMARK  4 active torsions:
REMARK  status: ('A' for Active; 'I' for Inactive)
REMARK       I    between atoms: C_1  and  N_3 
REMARK    1  A    between atoms: C_15  and  C_1 
REMARK    2  A    between atoms: CA_4  and  C_5 
REMARK    3  A    between atoms: CA_4  and  CB_8 
REMARK    4  A    between atoms: CB_8  and  CG_9 
ROOT
ATOM      1  C   UNK d   0      66.120  89.009  93.465  0.00  0.00     0.280 C 
ATOM      2  O   UNK d   0      66.448  89.932  94.210  0.00  0.00    -0.265 OA
ATOM      3  N   PHE d   1      66.770  87.881  93.162  0.00  0.00    -0.194 NA
ATOM      4  CA  PHE d   1      67.478  87.275  94.155  0.00  0.00     0.183 C 
ENDROOT
BRANCH   1   5
ATOM      5  C   UNK d   0      64.873  89.151  92.659  0.00  0.00     0.058 A 
ATOM      6  C   UNK d   0      64.805  88.795  91.257  0.00  0.00     0.005 A 
ATOM      7  C   UNK d   0      63.544  88.388  90.455  0.00  0.00    -0.001 A 
ATOM      8  C   UNK d   0      62.215  88.310  91.013  0.00  0.00    -0.008 A 
ATOM      9  C   UNK d   0      62.253  88.699  92.401  0.00  0.00    -0.001 A 
ATOM     10  C   UNK d   0      61.061  87.808  90.324  0.00  0.00    -0.044 C 
ATOM     11  C   UNK d   0      63.523  89.115  93.185  0.00  0.00     0.005 A 
ATOM     12  C   UNK d   0      61.055  87.469  88.842  0.00  0.00     0.026 C 
ATOM     13  C   UNK d   0      59.705  87.620  90.984  0.00  0.00     0.026 C 
ENDBRANCH   1   5
BRANCH   4  14
ATOM     14  C   PHE d   1      67.419  87.545  95.701  0.00  0.00     0.237 C 
ATOM     15  O   PHE d   1      66.337  87.193  96.276  0.00  0.00    -0.642 OA
ATOM     16  OXT PHE d   1      68.365  88.251  96.177  0.00  0.00    -0.642 OA
ENDBRANCH   4  14
BRANCH   4  17
ATOM     17  CB  PHE d   1      68.328  86.208  93.729  0.00  0.00    -0.076 C 
BRANCH  17  18
ATOM     18  CG  PHE d   1      69.213  85.157  93.359  0.00  0.00     0.036 A 
ATOM     19  CD1 PHE d   1      68.796  83.831  93.441  0.00  0.00     0.008 A 
ATOM     20  CE1 PHE d   1      69.669  82.807  93.074  0.00  0.00     0.001 A 
ATOM     21  CZ  PHE d   1      70.953  83.111  92.629  0.00  0.00     0.000 A 
ATOM     22  CE2 PHE d   1      71.367  84.439  92.548  0.00  0.00     0.001 A 
ATOM     23  CD2 PHE d   1      70.497  85.462  92.913  0.00  0.00     0.008 A 
ENDBRANCH  17  18
ENDBRANCH   4  17
TORSDOF 4
ENDMDL
MODEL 13
REMARK VINA RESULT:      -6.1     19.757     22.470
REMARK  4 active torsions:
REMARK  status: ('A' for Active; 'I' for Inactive)
REMARK       I    between atoms: C_1  and  N_3 
REMARK    1  A    between atoms: C_15  and  C_1 
REMARK    2  A    between atoms: CA_4  and  C_5 
REMARK    3  A    between atoms: CA_4  and  CB_8 
REMARK    4  A    between atoms: CB_8  and  CG_9 
ROOT
ATOM      1  C   UNK d   0      67.093  87.453  97.572  0.00  0.00     0.280 C 
ATOM      2  O   UNK d   0      66.422  86.430  97.717  0.00  0.00    -0.265 OA
ATOM      3  N   PHE d   1      68.042  87.972  98.357  0.00  0.00    -0.194 NA
ATOM      4  CA  PHE d   1      68.882  87.105  98.988  0.00  0.00     0.183 C 
ENDROOT
BRANCH   1   5
ATOM      5  C   UNK d   0      66.778  88.357  96.429  0.00  0.00     0.058 A 
ATOM      6  C   UNK d   0      66.902  87.941  95.047  0.00  0.00     0.005 A 
ATOM      7  C   UNK d   0      66.150  88.523  93.825  0.00  0.00    -0.001 A 
ATOM      8  C   UNK d   0      65.193  89.601  93.895  0.00  0.00    -0.008 A 
ATOM      9  C   UNK d   0      65.085  90.059  95.258  0.00  0.00    -0.001 A 
ATOM     10  C   UNK d   0      64.391  90.063  92.799  0.00  0.00    -0.044 C 
ATOM     11  C   UNK d   0      65.854  89.472  96.468  0.00  0.00     0.005 A 
ATOM     12  C   UNK d   0      64.585  89.595  91.365  0.00  0.00     0.026 C 
ATOM     13  C   UNK d   0      63.302  91.113  92.940  0.00  0.00     0.026 C 
ENDBRANCH   1   5
BRANCH   4  14
ATOM     14  C   PHE d   1      69.095  85.575  98.711  0.00  0.00     0.237 C 
ATOM     15  O   PHE d   1      68.649  84.789  99.611  0.00  0.00    -0.642 OA
ATOM     16  OXT PHE d   1      69.848  85.289  97.726  0.00  0.00    -0.642 OA
ENDBRANCH   4  14
BRANCH   4  17
ATOM     17  CB  PHE d   1      69.726  87.694  99.981  0.00  0.00    -0.076 C 
BRANCH  17  18
ATOM     18  CG  PHE d   1      70.607  88.300 100.919  0.00  0.00     0.036 A 
ATOM     19  CD1 PHE d   1      70.171  88.568 102.214  0.00  0.00     0.008 A 
ATOM     20  CE1 PHE d   1      71.041  89.160 103.129  0.00  0.00     0.001 A 
ATOM     21  CZ  PHE d   1      72.341  89.483 102.747  0.00  0.00     0.000 A 
ATOM     22  CE2 PHE d   1      72.774  89.214 101.450  0.00  0.00     0.001 A 
ATOM     23  CD2 PHE d   1      71.906  88.622 100.536  0.00  0.00     0.008 A 
ENDBRANCH  17  18
ENDBRANCH   4  17
TORSDOF 4
ENDMDL
MODEL 14
REMARK VINA RESULT:      -6.1     21.188     23.684
REMARK  4 active torsions:
REMARK  status: ('A' for Active; 'I' for Inactive)
REMARK       I    between atoms: C_1  and  N_3 
REMARK    1  A    between atoms: C_15  and  C_1 
REMARK    2  A    between atoms: CA_4  and  C_5 
REMARK    3  A    between atoms: CA_4  and  CB_8 
REMARK    4  A    between atoms: CB_8  and  CG_9 
ROOT
ATOM      1  C   UNK d   0      62.645  88.743  91.206  0.00  0.00     0.280 C 
ATOM      2  O   UNK d   0      62.751  89.701  90.439  0.00  0.00    -0.265 OA
ATOM      3  N   PHE d   1      63.404  88.395  92.250  0.00  0.00    -0.194 NA
ATOM      4  CA  PHE d   1      63.904  89.395  93.027  0.00  0.00     0.183 C 
ENDROOT
BRANCH   1   5
ATOM      5  C   UNK d   0      61.604  87.714  90.923  0.00  0.00     0.058 A 
ATOM      6  C   UNK d   0      60.333  87.679  91.615  0.00  0.00     0.005 A 
ATOM      7  C   UNK d   0      59.007  87.062  91.105  0.00  0.00    -0.001 A 
ATOM      8  C   UNK d   0      58.852  86.407  89.828  0.00  0.00    -0.008 A 
ATOM      9  C   UNK d   0      60.118  86.395  89.138  0.00  0.00    -0.001 A 
ATOM     10  C   UNK d   0      57.606  85.949  89.284  0.00  0.00    -0.044 C 
ATOM     11  C   UNK d   0      61.438  87.008  89.669  0.00  0.00     0.005 A 
ATOM     12  C   UNK d   0      56.307  85.924  90.074  0.00  0.00     0.026 C 
ATOM     13  C   UNK d   0      57.462  85.381  87.882  0.00  0.00     0.026 C 
ENDBRANCH   1   5
BRANCH   4  14
ATOM     14  C   PHE d   1      63.488  90.908  93.059  0.00  0.00     0.237 C 
ATOM     15  O   PHE d   1      62.294  91.140  93.442  0.00  0.00    -0.642 OA
ATOM     16  OXT PHE d   1      64.309  91.721  92.523  0.00  0.00    -0.642 OA
ENDBRANCH   4  14
BRANCH   4  17
ATOM     17  CB  PHE d   1      64.882  88.985  93.986  0.00  0.00    -0.076 C 
BRANCH  17  18
ATOM     18  CG  PHE d   1      65.805  88.560  94.982  0.00  0.00     0.036 A 
ATOM     19  CD1 PHE d   1      66.955  87.864  94.617  0.00  0.00     0.008 A 
ATOM     20  CE1 PHE d   1      67.855  87.453  95.598  0.00  0.00     0.001 A 
ATOM     21  CZ  PHE d   1      67.604  87.736  96.939  0.00  0.00     0.000 A 
ATOM     22  CE2 PHE d   1      66.453  88.432  97.301  0.00  0.00     0.001 A 
ATOM     23  CD2 PHE d   1      65.553  88.844  96.322  0.00  0.00     0.008 A 
ENDBRANCH  17  18
ENDBRANCH   4  17
TORSDOF 4
ENDMDL
MODEL 15
REMARK VINA RESULT:      -6.1      6.574      7.981
REMARK  4 active torsions:
REMARK  status: ('A' for Active; 'I' for Inactive)
REMARK       I    between atoms: C_1  and  N_3 
REMARK    1  A    between atoms: C_15  and  C_1 
REMARK    2  A    between atoms: CA_4  and  C_5 
REMARK    3  A    between atoms: CA_4  and  CB_8 
REMARK    4  A    between atoms: CB_8  and  CG_9 
ROOT
ATOM      1  C   UNK d   0      76.088  67.640  95.215  0.00  0.00     0.280 C 
ATOM      2  O   UNK d   0      76.281  66.440  95.412  0.00  0.00    -0.265 OA
ATOM      3  N   PHE d   1      75.420  68.531  95.954  0.00  0.00    -0.194 NA
ATOM      4  CA  PHE d   1      75.512  68.423  97.308  0.00  0.00     0.183 C 
ENDROOT
BRANCH   1   5
ATOM      5  C   UNK d   0      76.543  68.235  93.925  0.00  0.00     0.058 A 
ATOM      6  C   UNK d   0      77.538  67.604  93.083  0.00  0.00     0.005 A 
ATOM      7  C   UNK d   0      77.720  67.785  91.556  0.00  0.00    -0.001 A 
ATOM      8  C   UNK d   0      76.899  68.641  90.733  0.00  0.00    -0.008 A 
ATOM      9  C   UNK d   0      75.926  69.311  91.560  0.00  0.00    -0.001 A 
ATOM     10  C   UNK d   0      76.966  68.719  89.302  0.00  0.00    -0.044 C 
ATOM     11  C   UNK d   0      75.765  69.127  93.090  0.00  0.00     0.005 A 
ATOM     12  C   UNK d   0      78.051  68.044  88.479  0.00  0.00     0.026 C 
ATOM     13  C   UNK d   0      76.000  69.535  88.461  0.00  0.00     0.026 C 
ENDBRANCH   1   5
BRANCH   4  14
ATOM     14  C   PHE d   1      76.526  67.573  98.154  0.00  0.00     0.237 C 
ATOM     15  O   PHE d   1      76.041  66.528  98.699  0.00  0.00    -0.642 OA
ATOM     16  OXT PHE d   1      77.662  68.110  98.362  0.00  0.00    -0.642 OA
ENDBRANCH   4  14
BRANCH   4  17
ATOM     17  CB  PHE d   1      74.610  69.252  98.045  0.00  0.00    -0.076 C 
BRANCH  17  18
ATOM     18  CG  PHE d   1      73.706  70.027  98.824  0.00  0.00     0.036 A 
ATOM     19  CD1 PHE d   1      72.562  70.563  98.238  0.00  0.00     0.008 A 
ATOM     20  CE1 PHE d   1      71.679  71.319  99.009  0.00  0.00     0.001 A 
ATOM     21  CZ  PHE d   1      71.944  71.539 100.358  0.00  0.00     0.000 A 
ATOM     22  CE2 PHE d   1      73.089  71.001 100.942  0.00  0.00     0.001 A 
ATOM     23  CD2 PHE d   1      73.971  70.245 100.174  0.00  0.00     0.008 A 
ENDBRANCH  17  18
ENDBRANCH   4  17
TORSDOF 4
ENDMDL
MODEL 16
REMARK VINA RESULT:      -6.0     11.145     12.302
REMARK  4 active torsions:
REMARK  status: ('A' for Active; 'I' for Inactive)
REMARK       I    between atoms: C_1  and  N_3 
REMARK    1  A    between atoms: C_15  and  C_1 
REMARK    2  A    between atoms: CA_4  and  C_5 
REMARK    3  A    between atoms: CA_4  and  CB_8 
REMARK    4  A    between atoms: CB_8  and  CG_9 
ROOT
ATOM      1  C   UNK d   0      80.049  79.074  98.319  0.00  0.00     0.280 C 
ATOM      2  O   UNK d   0      80.192  79.622  99.412  0.00  0.00    -0.265 OA
ATOM      3  N   PHE d   1      79.442  79.516  97.213  0.00  0.00    -0.194 NA
ATOM      4  CA  PHE d   1      79.565  80.838  96.912  0.00  0.00     0.183 C 
ENDROOT
BRANCH   1   5
ATOM      5  C   UNK d   0      80.495  77.659  98.165  0.00  0.00     0.058 A 
ATOM      6  C   UNK d   0      81.395  77.234  97.113  0.00  0.00     0.005 A 
ATOM      7  C   UNK d   0      82.332  76.002  97.126  0.00  0.00    -0.001 A 
ATOM      8  C   UNK d   0      82.438  75.070  98.223  0.00  0.00    -0.008 A 
ATOM      9  C   UNK d   0      81.520  75.452  99.267  0.00  0.00    -0.001 A 
ATOM     10  C   UNK d   0      83.394  74.004  98.309  0.00  0.00    -0.044 C 
ATOM     11  C   UNK d   0      80.580  76.684  99.233  0.00  0.00     0.005 A 
ATOM     12  C   UNK d   0      84.299  73.598  97.156  0.00  0.00     0.026 C 
ATOM     13  C   UNK d   0      83.561  73.124  99.536  0.00  0.00     0.026 C 
ENDBRANCH   1   5
BRANCH   4  14
ATOM     14  C   PHE d   1      80.562  81.889  97.518  0.00  0.00     0.237 C 
ATOM     15  O   PHE d   1      81.789  81.715  97.217  0.00  0.00    -0.642 OA
ATOM     16  OXT PHE d   1      80.075  82.679  98.389  0.00  0.00    -0.642 OA
ENDBRANCH   4  14
BRANCH   4  17
ATOM     17  CB  PHE d   1      78.722  81.300  95.854  0.00  0.00    -0.076 C 
BRANCH  17  18
ATOM     18  CG  PHE d   1      77.858  81.698  94.796  0.00  0.00     0.036 A 
ATOM     19  CD1 PHE d   1      76.936  82.722  94.994  0.00  0.00     0.008 A 
ATOM     20  CE1 PHE d   1      76.095  83.108  93.951  0.00  0.00     0.001 A 
ATOM     21  CZ  PHE d   1      76.176  82.468  92.717  0.00  0.00     0.000 A 
ATOM     22  CE2 PHE d   1      77.099  81.443  92.522  0.00  0.00     0.001 A 
ATOM     23  CD2 PHE d   1      77.941  81.058  93.562  0.00  0.00     0.008 A 
ENDBRANCH  17  18
ENDBRANCH   4  17
TORSDOF 4
ENDMDL
MODEL 17
REMARK VINA RESULT:      -6.0      2.516      8.134
REMARK  4 active torsions:
REMARK  status: ('A' for Active; 'I' for Inactive)
REMARK       I    between atoms: C_1  and  N_3 
REMARK    1  A    between atoms: C_15  and  C_1 
REMARK    2  A    between atoms: CA_4  and  C_5 
REMARK    3  A    between atoms: CA_4  and  CB_8 
REMARK    4  A    between atoms: CB_8  and  CG_9 
ROOT
ATOM      1  C   UNK d   0      76.696  72.696  92.875  0.00  0.00     0.280 C 
ATOM      2  O   UNK d   0      75.662  72.790  93.536  0.00  0.00    -0.265 OA
ATOM      3  N   PHE d   1      77.000  71.862  91.875  0.00  0.00    -0.194 NA
ATOM      4  CA  PHE d   1      76.009  71.544  90.997  0.00  0.00     0.183 C 
ENDROOT
BRANCH   1   5
ATOM      5  C   UNK d   0      77.870  73.530  93.262  0.00  0.00     0.058 A 
ATOM      6  C   UNK d   0      79.083  73.586  92.473  0.00  0.00     0.005 A 
ATOM      7  C   UNK d   0      80.119  74.736  92.433  0.00  0.00    -0.001 A 
ATOM      8  C   UNK d   0      80.020  75.950  93.207  0.00  0.00    -0.008 A 
ATOM      9  C   UNK d   0      78.838  75.898  94.032  0.00  0.00    -0.001 A 
ATOM     10  C   UNK d   0      80.896  77.079  93.084  0.00  0.00    -0.044 C 
ATOM     11  C   UNK d   0      77.817  74.733  94.068  0.00  0.00     0.005 A 
ATOM     12  C   UNK d   0      82.166  77.064  92.248  0.00  0.00     0.026 C 
ATOM     13  C   UNK d   0      80.684  78.390  93.823  0.00  0.00     0.026 C 
ENDBRANCH   1   5
BRANCH   4  14
ATOM     14  C   PHE d   1      74.613  72.237  90.806  0.00  0.00     0.237 C 
ATOM     15  O   PHE d   1      73.603  71.464  90.897  0.00  0.00    -0.642 OA
ATOM     16  OXT PHE d   1      74.643  73.441  90.395  0.00  0.00    -0.642 OA
ENDBRANCH   4  14
BRANCH   4  17
ATOM     17  CB  PHE d   1      76.322  70.485  90.088  0.00  0.00    -0.076 C 
BRANCH  17  18
ATOM     18  CG  PHE d   1      76.676  69.407  89.230  0.00  0.00     0.036 A 
ATOM     19  CD1 PHE d   1      77.426  68.341  89.720  0.00  0.00     0.008 A 
ATOM     20  CE1 PHE d   1      77.767  67.287  88.873  0.00  0.00     0.001 A 
ATOM     21  CZ  PHE d   1      77.360  67.303  87.541  0.00  0.00     0.000 A 
ATOM     22  CE2 PHE d   1      76.610  68.371  87.053  0.00  0.00     0.001 A 
ATOM     23  CD2 PHE d   1      76.268  69.424  87.898  0.00  0.00     0.008 A 
ENDBRANCH  17  18
ENDBRANCH   4  17
TORSDOF 4
ENDMDL
MODEL 18
REMARK VINA RESULT:      -6.0      3.906      8.442
REMARK  4 active torsions:
REMARK  status: ('A' for Active; 'I' for Inactive)
REMARK       I    between atoms: C_1  and  N_3 
REMARK    1  A    between atoms: C_15  and  C_1 
REMARK    2  A    between atoms: CA_4  and  C_5 
REMARK    3  A    between atoms: CA_4  and  CB_8 
REMARK    4  A    between atoms: CB_8  and  CG_9 
ROOT
ATOM      1  C   UNK d   0      78.032  67.280  88.424  0.00  0.00     0.280 C 
ATOM      2  O   UNK d   0      78.241  66.647  87.389  0.00  0.00    -0.265 OA
ATOM      3  N   PHE d   1      77.831  66.840  89.671  0.00  0.00    -0.194 NA
ATOM      4  CA  PHE d   1      78.546  65.754  90.078  0.00  0.00     0.183 C 
ENDROOT
BRANCH   1   5
ATOM      5  C   UNK d   0      77.851  68.757  88.334  0.00  0.00     0.058 A 
ATOM      6  C   UNK d   0      76.563  69.398  88.499  0.00  0.00     0.005 A 
ATOM      7  C   UNK d   0      76.295  70.855  88.951  0.00  0.00    -0.001 A 
ATOM      8  C   UNK d   0      77.327  71.811  89.274  0.00  0.00    -0.008 A 
ATOM      9  C   UNK d   0      78.621  71.205  89.078  0.00  0.00    -0.001 A 
ATOM     10  C   UNK d   0      77.097  73.117  89.821  0.00  0.00    -0.044 C 
ATOM     11  C   UNK d   0      78.871  69.748  88.614  0.00  0.00     0.005 A 
ATOM     12  C   UNK d   0      75.715  73.737  89.951  0.00  0.00     0.026 C 
ATOM     13  C   UNK d   0      78.212  74.046  90.269  0.00  0.00     0.026 C 
ENDBRANCH   1   5
BRANCH   4  14
ATOM     14  C   PHE d   1      79.799  65.098  89.398  0.00  0.00     0.237 C 
ATOM     15  O   PHE d   1      79.569  64.026  88.747  0.00  0.00    -0.642 OA
ATOM     16  OXT PHE d   1      80.928  65.591  89.721  0.00  0.00    -0.642 OA
ENDBRANCH   4  14
BRANCH   4  17
ATOM     17  CB  PHE d   1      78.135  65.193  91.327  0.00  0.00    -0.076 C 
BRANCH  17  18
ATOM     18  CG  PHE d   1      77.709  64.696  92.591  0.00  0.00     0.036 A 
ATOM     19  CD1 PHE d   1      77.799  65.500  93.724  0.00  0.00     0.008 A 
ATOM     20  CE1 PHE d   1      77.377  65.007  94.958  0.00  0.00     0.001 A 
ATOM     21  CZ  PHE d   1      76.868  63.714  95.055  0.00  0.00     0.000 A 
ATOM     22  CE2 PHE d   1      76.779  62.912  93.920  0.00  0.00     0.001 A 
ATOM     23  CD2 PHE d   1      77.199  63.404  92.687  0.00  0.00     0.008 A 
ENDBRANCH  17  18
ENDBRANCH   4  17
TORSDOF 4
ENDMDL
MODEL 19
REMARK VINA RESULT:      -6.0      6.670      9.505
REMARK  4 active torsions:
REMARK  status: ('A' for Active; 'I' for Inactive)
REMARK       I    between atoms: C_1  and  N_3 
REMARK    1  A    between atoms: C_15  and  C_1 
REMARK    2  A    between atoms: CA_4  and  C_5 
REMARK    3  A    between atoms: CA_4  and  CB_8 
REMARK    4  A    between atoms: CB_8  and  CG_9 
ROOT
ATOM      1  C   UNK d   0      76.631  68.092  94.956  0.00  0.00     0.280 C 
ATOM      2  O   UNK d   0      76.815  69.171  95.521  0.00  0.00    -0.265 OA
ATOM      3  N   PHE d   1      76.649  66.851  95.453  0.00  0.00    -0.194 NA
ATOM      4  CA  PHE d   1      76.143  66.666  96.704  0.00  0.00     0.183 C 
ENDROOT
BRANCH   1   5
ATOM      5  C   UNK d   0      76.467  68.082  93.474  0.00  0.00     0.058 A 
ATOM      6  C   UNK d   0      75.690  69.079  92.768  0.00  0.00     0.005 A 
ATOM      7  C   UNK d   0      75.849  69.514  91.290  0.00  0.00    -0.001 A 
ATOM      8  C   UNK d   0      76.823  68.962  90.379  0.00  0.00    -0.008 A 
ATOM      9  C   UNK d   0      77.581  67.936  91.051  0.00  0.00    -0.001 A 
ATOM     10  C   UNK d   0      77.073  69.442  89.050  0.00  0.00    -0.044 C 
ATOM     11  C   UNK d   0      77.401  67.506  92.529  0.00  0.00     0.005 A 
ATOM     12  C   UNK d   0      76.205  70.483  88.361  0.00  0.00     0.026 C 
ATOM     13  C   UNK d   0      78.194  68.920  88.167  0.00  0.00     0.026 C 
ENDBRANCH   1   5
BRANCH   4  14
ATOM     14  C   PHE d   1      75.267  67.649  97.559  0.00  0.00     0.237 C 
ATOM     15  O   PHE d   1      75.722  67.916  98.721  0.00  0.00    -0.642 OA
ATOM     16  OXT PHE d   1      74.117  67.922  97.087  0.00  0.00    -0.642 OA
ENDBRANCH   4  14
BRANCH   4  17
ATOM     17  CB  PHE d   1      76.388  65.377  97.271  0.00  0.00    -0.076 C 
BRANCH  17  18
ATOM     18  CG  PHE d   1      76.628  64.122  97.898  0.00  0.00     0.036 A 
ATOM     19  CD1 PHE d   1      76.217  62.943  97.281  0.00  0.00     0.008 A 
ATOM     20  CE1 PHE d   1      76.458  61.718  97.899  0.00  0.00     0.001 A 
ATOM     21  CZ  PHE d   1      77.107  61.674  99.131  0.00  0.00     0.000 A 
ATOM     22  CE2 PHE d   1      77.518  62.854  99.746  0.00  0.00     0.001 A 
ATOM     23  CD2 PHE d   1      77.278  64.079  99.129  0.00  0.00     0.008 A 
ENDBRANCH  17  18
ENDBRANCH   4  17
TORSDOF 4
ENDMDL
MODEL 20
REMARK VINA RESULT:      -5.9      2.346      3.259
REMARK  4 active torsions:
REMARK  status: ('A' for Active; 'I' for Inactive)
REMARK       I    between atoms: C_1  and  N_3 
REMARK    1  A    between atoms: C_15  and  C_1 
REMARK    2  A    between atoms: CA_4  and  C_5 
REMARK    3  A    between atoms: CA_4  and  CB_8 
REMARK    4  A    between atoms: CB_8  and  CG_9 
ROOT
ATOM      1  C   UNK d   0      77.004  72.491  89.399  0.00  0.00     0.280 C 
ATOM      2  O   UNK d   0      75.833  72.813  89.195  0.00  0.00    -0.265 OA
ATOM      3  N   PHE d   1      77.994  73.183  89.972  0.00  0.00    -0.194 NA
ATOM      4  CA  PHE d   1      77.675  73.983  91.027  0.00  0.00     0.183 C 
ENDROOT
BRANCH   1   5
ATOM      5  C   UNK d   0      77.493  71.192  88.855  0.00  0.00     0.058 A 
ATOM      6  C   UNK d   0      78.608  70.472  89.436  0.00  0.00     0.005 A 
ATOM      7  C   UNK d   0      78.886  68.951  89.348  0.00  0.00    -0.001 A 
ATOM      8  C   UNK d   0      78.048  68.009  88.646  0.00  0.00    -0.008 A 
ATOM      9  C   UNK d   0      76.952  68.711  88.025  0.00  0.00    -0.001 A 
ATOM     10  C   UNK d   0      78.215  66.584  88.665  0.00  0.00    -0.044 C 
ATOM     11  C   UNK d   0      76.695  70.237  88.114  0.00  0.00     0.005 A 
ATOM     12  C   UNK d   0      79.421  65.893  89.280  0.00  0.00     0.026 C 
ATOM     13  C   UNK d   0      77.238  65.616  88.020  0.00  0.00     0.026 C 
ENDBRANCH   1   5
BRANCH   4  14
ATOM     14  C   PHE d   1      76.353  74.004  91.873  0.00  0.00     0.237 C 
ATOM     15  O   PHE d   1      75.620  75.036  91.717  0.00  0.00    -0.642 OA
ATOM     16  OXT PHE d   1      76.245  73.094  92.757  0.00  0.00    -0.642 OA
ENDBRANCH   4  14
BRANCH   4  17
ATOM     17  CB  PHE d   1      78.717  74.863  91.456  0.00  0.00    -0.076 C 
BRANCH  17  18
ATOM     18  CG  PHE d   1      79.763  75.700  91.937  0.00  0.00     0.036 A 
ATOM     19  CD1 PHE d   1      81.046  75.587  91.409  0.00  0.00     0.008 A 
ATOM     20  CE1 PHE d   1      82.065  76.412  91.884  0.00  0.00     0.001 A 
ATOM     21  CZ  PHE d   1      81.799  77.344  92.884  0.00  0.00     0.000 A 
ATOM     22  CE2 PHE d   1      80.513  77.455  93.410  0.00  0.00     0.001 A 
ATOM     23  CD2 PHE d   1      79.495  76.633  92.936  0.00  0.00     0.008 A 
ENDBRANCH  17  18
ENDBRANCH   4  17
TORSDOF 4
ENDMDL
