MODEL 1
REMARK VINA RESULT:      -6.7      0.000      0.000
REMARK  4 active torsions:
REMARK  status: ('A' for Active; 'I' for Inactive)
REMARK    1  A    between atoms: C_2  and  C_4 
REMARK    2  A    between atoms: C_5  and  N_6 
REMARK    3  A    between atoms: N_6  and  C_7 
REMARK    4  A    between atoms: C_11  and  C_13 
ROOT
ATOM      1  C   UNL d   1      81.870  80.219  95.182  0.00  0.00     0.083 A 
ATOM      2  C   UNL d   1      82.071  79.184  94.260  0.00  0.00     0.019 A 
ATOM      3  C   UNL d   1      83.337  78.697  93.940  0.00  0.00     0.002 A 
ATOM      4  C   UNL d   1      84.457  79.264  94.532  0.00  0.00     0.004 A 
ATOM      5  C   UNL d   1      84.310  80.301  95.450  0.00  0.00     0.073 A 
ATOM      6  C   UNL d   1      83.028  80.759  95.758  0.00  0.00     0.023 A 
ENDROOT
BRANCH   1   7
ATOM      7  N   UNL d   1      80.687  80.770  95.547  0.00  0.00    -0.227 NA
BRANCH   7   8
ATOM      8  C   UNL d   1      80.003  80.438  96.672  0.00  0.00     0.168 A 
ATOM      9  C   UNL d   1      79.965  81.296  97.793  0.00  0.00     0.100 A 
ATOM     10  C   UNL d   1      79.278  80.870  98.938  0.00  0.00     0.011 A 
ATOM     11  C   UNL d   1      78.652  79.640  98.981  0.00  0.00     0.021 A 
ATOM     12  C   UNL d   1      78.754  78.858  97.852  0.00  0.00     0.101 A 
ATOM     13  N   UNL d   1      79.406  79.210  96.728  0.00  0.00    -0.225 NA
BRANCH   9  14
ATOM     14  C   UNL d   1      80.617  82.647  97.907  0.00  0.00     0.214 C 
ATOM     15  O   UNL d   1      79.886  83.688  97.776  0.00  0.00    -0.644 OA
ATOM     16  O   UNL d   1      81.832  82.667  98.317  0.00  0.00    -0.644 OA
ENDBRANCH   9  14
ENDBRANCH   7   8
ENDBRANCH   1   7
BRANCH   5  17
ATOM     17  C   UNL d   1      85.510  80.953  96.038  0.00  0.00     0.419 C 
ATOM     18  F   UNL d   1      85.251  82.201  96.533  0.00  0.00    -0.166 F 
ATOM     19  F   UNL d   1      86.106  80.272  97.058  0.00  0.00    -0.166 F 
ATOM     20  F   UNL d   1      86.509  81.148  95.119  0.00  0.00    -0.166 F 
ENDBRANCH   5  17
TORSDOF 4
ENDMDL
MODEL 2
REMARK VINA RESULT:      -6.6     13.629     14.784
REMARK  4 active torsions:
REMARK  status: ('A' for Active; 'I' for Inactive)
REMARK    1  A    between atoms: C_2  and  C_4 
REMARK    2  A    between atoms: C_5  and  N_6 
REMARK    3  A    between atoms: N_6  and  C_7 
REMARK    4  A    between atoms: C_11  and  C_13 
ROOT
ATOM      1  C   UNL d   1      76.951  70.032  88.799  0.00  0.00     0.083 A 
ATOM      2  C   UNL d   1      76.320  70.275  87.573  0.00  0.00     0.019 A 
ATOM      3  C   UNL d   1      76.124  69.281  86.617  0.00  0.00     0.002 A 
ATOM      4  C   UNL d   1      76.586  67.995  86.864  0.00  0.00     0.004 A 
ATOM      5  C   UNL d   1      77.227  67.704  88.066  0.00  0.00     0.073 A 
ATOM      6  C   UNL d   1      77.398  68.720  89.008  0.00  0.00     0.023 A 
ENDROOT
BRANCH   1   7
ATOM      7  N   UNL d   1      77.202  70.930  89.782  0.00  0.00    -0.227 NA
BRANCH   7   8
ATOM      8  C   UNL d   1      76.347  71.918  90.153  0.00  0.00     0.168 A 
ATOM      9  C   UNL d   1      75.047  71.630  90.623  0.00  0.00     0.100 A 
ATOM     10  C   UNL d   1      74.201  72.700  90.945  0.00  0.00     0.011 A 
ATOM     11  C   UNL d   1      74.618  74.009  90.806  0.00  0.00     0.021 A 
ATOM     12  C   UNL d   1      75.893  74.201  90.324  0.00  0.00     0.101 A 
ATOM     13  N   UNL d   1      76.746  73.215  89.990  0.00  0.00    -0.225 NA
BRANCH   9  14
ATOM     14  C   UNL d   1      74.443  70.265  90.802  0.00  0.00     0.214 C 
ATOM     15  O   UNL d   1      74.781  69.580  91.828  0.00  0.00    -0.644 OA
ATOM     16  O   UNL d   1      73.483  69.952  90.012  0.00  0.00    -0.644 OA
ENDBRANCH   9  14
ENDBRANCH   7   8
ENDBRANCH   1   7
BRANCH   5  17
ATOM     17  C   UNL d   1      77.780  66.345  88.307  0.00  0.00     0.419 C 
ATOM     18  F   UNL d   1      76.931  65.346  87.920  0.00  0.00    -0.166 F 
ATOM     19  F   UNL d   1      78.965  66.077  87.689  0.00  0.00    -0.166 F 
ATOM     20  F   UNL d   1      78.017  66.099  89.635  0.00  0.00    -0.166 F 
ENDBRANCH   5  17
TORSDOF 4
ENDMDL
MODEL 3
REMARK VINA RESULT:      -6.4     13.432     14.670
REMARK  4 active torsions:
REMARK  status: ('A' for Active; 'I' for Inactive)
REMARK    1  A    between atoms: C_2  and  C_4 
REMARK    2  A    between atoms: C_5  and  N_6 
REMARK    3  A    between atoms: N_6  and  C_7 
REMARK    4  A    between atoms: C_11  and  C_13 
ROOT
ATOM      1  C   UNL d   1      76.708  69.045  88.027  0.00  0.00     0.083 A 
ATOM      2  C   UNL d   1      77.152  68.583  86.782  0.00  0.00     0.019 A 
ATOM      3  C   UNL d   1      77.929  67.435  86.639  0.00  0.00     0.002 A 
ATOM      4  C   UNL d   1      78.306  66.721  87.767  0.00  0.00     0.004 A 
ATOM      5  C   UNL d   1      77.896  67.144  89.029  0.00  0.00     0.073 A 
ATOM      6  C   UNL d   1      77.109  68.292  89.138  0.00  0.00     0.023 A 
ENDROOT
BRANCH   1   7
ATOM      7  N   UNL d   1      75.966  70.152  88.271  0.00  0.00    -0.227 NA
BRANCH   7   8
ATOM      8  C   UNL d   1      76.395  71.217  88.996  0.00  0.00     0.168 A 
ATOM      9  C   UNL d   1      75.734  71.620  90.177  0.00  0.00     0.100 A 
ATOM     10  C   UNL d   1      76.203  72.756  90.851  0.00  0.00     0.011 A 
ATOM     11  C   UNL d   1      77.284  73.474  90.377  0.00  0.00     0.021 A 
ATOM     12  C   UNL d   1      77.858  73.023  89.211  0.00  0.00     0.101 A 
ATOM     13  N   UNL d   1      77.446  71.946  88.516  0.00  0.00    -0.225 NA
BRANCH   9  14
ATOM     14  C   UNL d   1      74.534  70.961  90.799  0.00  0.00     0.214 C 
ATOM     15  O   UNL d   1      74.705  69.869  91.442  0.00  0.00    -0.644 OA
ATOM     16  O   UNL d   1      73.444  71.637  90.804  0.00  0.00    -0.644 OA
ENDBRANCH   9  14
ENDBRANCH   7   8
ENDBRANCH   1   7
BRANCH   5  17
ATOM     17  C   UNL d   1      78.352  66.418  90.245  0.00  0.00     0.419 C 
ATOM     18  F   UNL d   1      77.701  66.815  91.379  0.00  0.00    -0.166 F 
ATOM     19  F   UNL d   1      78.216  65.062  90.202  0.00  0.00    -0.166 F 
ATOM     20  F   UNL d   1      79.679  66.626  90.518  0.00  0.00    -0.166 F 
ENDBRANCH   5  17
TORSDOF 4
ENDMDL
MODEL 4
REMARK VINA RESULT:      -6.3      2.612      3.341
REMARK  4 active torsions:
REMARK  status: ('A' for Active; 'I' for Inactive)
REMARK    1  A    between atoms: C_2  and  C_4 
REMARK    2  A    between atoms: C_5  and  N_6 
REMARK    3  A    between atoms: N_6  and  C_7 
REMARK    4  A    between atoms: C_11  and  C_13 
ROOT
ATOM      1  C   UNL d   1      81.788  79.623  96.217  0.00  0.00     0.083 A 
ATOM      2  C   UNL d   1      81.319  80.941  96.276  0.00  0.00     0.019 A 
ATOM      3  C   UNL d   1      82.168  82.045  96.237  0.00  0.00     0.002 A 
ATOM      4  C   UNL d   1      83.540  81.848  96.158  0.00  0.00     0.004 A 
ATOM      5  C   UNL d   1      84.057  80.556  96.103  0.00  0.00     0.073 A 
ATOM      6  C   UNL d   1      83.179  79.472  96.134  0.00  0.00     0.023 A 
ENDROOT
BRANCH   1   7
ATOM      7  N   UNL d   1      81.048  78.489  96.264  0.00  0.00    -0.227 NA
BRANCH   7   8
ATOM      8  C   UNL d   1      81.146  77.551  97.240  0.00  0.00     0.168 A 
ATOM      9  C   UNL d   1      80.544  77.736  98.504  0.00  0.00     0.100 A 
ATOM     10  C   UNL d   1      80.724  76.747  99.481  0.00  0.00     0.011 A 
ATOM     11  C   UNL d   1      81.474  75.616  99.225  0.00  0.00     0.021 A 
ATOM     12  C   UNL d   1      82.040  75.524  97.974  0.00  0.00     0.101 A 
ATOM     13  N   UNL d   1      81.910  76.444  97.000  0.00  0.00    -0.225 NA
BRANCH   9  14
ATOM     14  C   UNL d   1      79.726  78.920  98.940  0.00  0.00     0.214 C 
ATOM     15  O   UNL d   1      78.451  78.811  98.942  0.00  0.00    -0.644 OA
ATOM     16  O   UNL d   1      80.365  79.902  99.461  0.00  0.00    -0.644 OA
ENDBRANCH   9  14
ENDBRANCH   7   8
ENDBRANCH   1   7
BRANCH   5  17
ATOM     17  C   UNL d   1      85.528  80.341  96.083  0.00  0.00     0.419 C 
ATOM     18  F   UNL d   1      85.881  79.104  95.619  0.00  0.00    -0.166 F 
ATOM     19  F   UNL d   1      86.240  81.229  95.331  0.00  0.00    -0.166 F 
ATOM     20  F   UNL d   1      86.090  80.413  97.332  0.00  0.00    -0.166 F 
ENDBRANCH   5  17
TORSDOF 4
ENDMDL
MODEL 5
REMARK VINA RESULT:      -6.3      3.437      5.902
REMARK  4 active torsions:
REMARK  status: ('A' for Active; 'I' for Inactive)
REMARK    1  A    between atoms: C_2  and  C_4 
REMARK    2  A    between atoms: C_5  and  N_6 
REMARK    3  A    between atoms: N_6  and  C_7 
REMARK    4  A    between atoms: C_11  and  C_13 
ROOT
ATOM      1  C   UNL d   1      80.633  81.237  97.162  0.00  0.00     0.083 A 
ATOM      2  C   UNL d   1      79.683  81.906  97.944  0.00  0.00     0.019 A 
ATOM      3  C   UNL d   1      78.954  81.271  98.947  0.00  0.00     0.002 A 
ATOM      4  C   UNL d   1      79.149  79.917  99.182  0.00  0.00     0.004 A 
ATOM      5  C   UNL d   1      80.078  79.206  98.425  0.00  0.00     0.073 A 
ATOM      6  C   UNL d   1      80.799  79.873  97.434  0.00  0.00     0.023 A 
ENDROOT
BRANCH   1   7
ATOM      7  N   UNL d   1      81.377  81.759  96.156  0.00  0.00    -0.227 NA
BRANCH   7   8
ATOM      8  C   UNL d   1      82.725  81.637  96.059  0.00  0.00     0.168 A 
ATOM      9  C   UNL d   1      83.324  80.832  95.065  0.00  0.00     0.100 A 
ATOM     10  C   UNL d   1      84.721  80.715  95.052  0.00  0.00     0.011 A 
ATOM     11  C   UNL d   1      85.502  81.364  95.987  0.00  0.00     0.021 A 
ATOM     12  C   UNL d   1      84.838  82.112  96.932  0.00  0.00     0.101 A 
ATOM     13  N   UNL d   1      83.501  82.255  97.000  0.00  0.00    -0.225 NA
BRANCH   9  14
ATOM     14  C   UNL d   1      82.609  80.047  94.000  0.00  0.00     0.214 C 
ATOM     15  O   UNL d   1      82.155  78.889  94.300  0.00  0.00    -0.644 OA
ATOM     16  O   UNL d   1      82.335  80.668  92.913  0.00  0.00    -0.644 OA
ENDBRANCH   9  14
ENDBRANCH   7   8
ENDBRANCH   1   7
BRANCH   5  17
ATOM     17  C   UNL d   1      80.243  77.742  98.629  0.00  0.00     0.419 C 
ATOM     18  F   UNL d   1      80.987  77.147  97.649  0.00  0.00    -0.166 F 
ATOM     19  F   UNL d   1      80.830  77.377  99.805  0.00  0.00    -0.166 F 
ATOM     20  F   UNL d   1      79.049  77.068  98.612  0.00  0.00    -0.166 F 
ENDBRANCH   5  17
TORSDOF 4
ENDMDL
MODEL 6
REMARK VINA RESULT:      -6.3      2.245      2.750
REMARK  4 active torsions:
REMARK  status: ('A' for Active; 'I' for Inactive)
REMARK    1  A    between atoms: C_2  and  C_4 
REMARK    2  A    between atoms: C_5  and  N_6 
REMARK    3  A    between atoms: N_6  and  C_7 
REMARK    4  A    between atoms: C_11  and  C_13 
ROOT
ATOM      1  C   UNL d   1      82.213  79.625  95.726  0.00  0.00     0.083 A 
ATOM      2  C   UNL d   1      81.862  80.186  94.492  0.00  0.00     0.019 A 
ATOM      3  C   UNL d   1      82.801  80.745  93.626  0.00  0.00     0.002 A 
ATOM      4  C   UNL d   1      84.138  80.773  93.995  0.00  0.00     0.004 A 
ATOM      5  C   UNL d   1      84.536  80.234  95.216  0.00  0.00     0.073 A 
ATOM      6  C   UNL d   1      83.574  79.673  96.057  0.00  0.00     0.023 A 
ENDROOT
BRANCH   1   7
ATOM      7  N   UNL d   1      81.377  79.075  96.641  0.00  0.00    -0.227 NA
BRANCH   7   8
ATOM      8  C   UNL d   1      80.555  79.788  97.452  0.00  0.00     0.168 A 
ATOM      9  C   UNL d   1      79.901  79.189  98.551  0.00  0.00     0.100 A 
ATOM     10  C   UNL d   1      79.030  79.974  99.319  0.00  0.00     0.011 A 
ATOM     11  C   UNL d   1      78.807  81.303  99.015  0.00  0.00     0.021 A 
ATOM     12  C   UNL d   1      79.470  81.802  97.918  0.00  0.00     0.101 A 
ATOM     13  N   UNL d   1      80.310  81.096  97.138  0.00  0.00    -0.225 NA
BRANCH   9  14
ATOM     14  C   UNL d   1      80.020  77.756  98.989  0.00  0.00     0.214 C 
ATOM     15  O   UNL d   1      79.059  76.956  98.723  0.00  0.00    -0.644 OA
ATOM     16  O   UNL d   1      81.163  77.385  99.437  0.00  0.00    -0.644 OA
ENDBRANCH   9  14
ENDBRANCH   7   8
ENDBRANCH   1   7
BRANCH   5  17
ATOM     17  C   UNL d   1      85.958  80.321  95.643  0.00  0.00     0.419 C 
ATOM     18  F   UNL d   1      86.658  81.289  94.977  0.00  0.00    -0.166 F 
ATOM     19  F   UNL d   1      86.157  80.573  96.968  0.00  0.00    -0.166 F 
ATOM     20  F   UNL d   1      86.654  79.164  95.400  0.00  0.00    -0.166 F 
ENDBRANCH   5  17
TORSDOF 4
ENDMDL
MODEL 7
REMARK VINA RESULT:      -6.2     31.474     32.834
REMARK  4 active torsions:
REMARK  status: ('A' for Active; 'I' for Inactive)
REMARK    1  A    between atoms: C_2  and  C_4 
REMARK    2  A    between atoms: C_5  and  N_6 
REMARK    3  A    between atoms: N_6  and  C_7 
REMARK    4  A    between atoms: C_11  and  C_13 
ROOT
ATOM      1  C   UNL d   1      55.515  70.854  78.587  0.00  0.00     0.083 A 
ATOM      2  C   UNL d   1      54.179  70.637  78.227  0.00  0.00     0.019 A 
ATOM      3  C   UNL d   1      53.719  69.413  77.745  0.00  0.00     0.002 A 
ATOM      4  C   UNL d   1      54.611  68.361  77.589  0.00  0.00     0.004 A 
ATOM      5  C   UNL d   1      55.952  68.530  77.926  0.00  0.00     0.073 A 
ATOM      6  C   UNL d   1      56.379  69.765  78.416  0.00  0.00     0.023 A 
ENDROOT
BRANCH   1   7
ATOM      7  N   UNL d   1      56.060  72.006  79.048  0.00  0.00    -0.227 NA
BRANCH   7   8
ATOM      8  C   UNL d   1      56.795  72.103  80.185  0.00  0.00     0.168 A 
ATOM      9  C   UNL d   1      56.192  72.368  81.434  0.00  0.00     0.100 A 
ATOM     10  C   UNL d   1      57.016  72.502  82.559  0.00  0.00     0.011 A 
ATOM     11  C   UNL d   1      58.389  72.383  82.460  0.00  0.00     0.021 A 
ATOM     12  C   UNL d   1      58.896  72.144  81.203  0.00  0.00     0.101 A 
ATOM     13  N   UNL d   1      58.156  72.015  80.086  0.00  0.00    -0.225 NA
BRANCH   9  14
ATOM     14  C   UNL d   1      54.722  72.549  81.696  0.00  0.00     0.214 C 
ATOM     15  O   UNL d   1      54.259  73.738  81.770  0.00  0.00    -0.644 OA
ATOM     16  O   UNL d   1      53.994  71.495  81.641  0.00  0.00    -0.644 OA
ENDBRANCH   9  14
ENDBRANCH   7   8
ENDBRANCH   1   7
BRANCH   5  17
ATOM     17  C   UNL d   1      56.923  67.426  77.700  0.00  0.00     0.419 C 
ATOM     18  F   UNL d   1      57.059  66.603  78.783  0.00  0.00    -0.166 F 
ATOM     19  F   UNL d   1      56.640  66.603  76.650  0.00  0.00    -0.166 F 
ATOM     20  F   UNL d   1      58.192  67.882  77.452  0.00  0.00    -0.166 F 
ENDBRANCH   5  17
TORSDOF 4
ENDMDL
MODEL 8
REMARK VINA RESULT:      -6.1     13.427     14.667
REMARK  4 active torsions:
REMARK  status: ('A' for Active; 'I' for Inactive)
REMARK    1  A    between atoms: C_2  and  C_4 
REMARK    2  A    between atoms: C_5  and  N_6 
REMARK    3  A    between atoms: N_6  and  C_7 
REMARK    4  A    between atoms: C_11  and  C_13 
ROOT
ATOM      1  C   UNL d   1      77.429  68.678  91.196  0.00  0.00     0.083 A 
ATOM      2  C   UNL d   1      78.256  67.863  91.979  0.00  0.00     0.019 A 
ATOM      3  C   UNL d   1      78.874  66.718  91.479  0.00  0.00     0.002 A 
ATOM      4  C   UNL d   1      78.654  66.344  90.161  0.00  0.00     0.004 A 
ATOM      5  C   UNL d   1      77.833  67.118  89.344  0.00  0.00     0.073 A 
ATOM      6  C   UNL d   1      77.237  68.265  89.872  0.00  0.00     0.023 A 
ENDROOT
BRANCH   1   7
ATOM      7  N   UNL d   1      76.773  69.797  91.592  0.00  0.00    -0.227 NA
BRANCH   7   8
ATOM      8  C   UNL d   1      76.889  71.006  90.986  0.00  0.00     0.168 A 
ATOM      9  C   UNL d   1      75.782  71.634  90.374  0.00  0.00     0.100 A 
ATOM     10  C   UNL d   1      75.983  72.861  89.727  0.00  0.00     0.011 A 
ATOM     11  C   UNL d   1      77.232  73.449  89.680  0.00  0.00     0.021 A 
ATOM     12  C   UNL d   1      78.259  72.762  90.286  0.00  0.00     0.101 A 
ATOM     13  N   UNL d   1      78.128  71.578  90.914  0.00  0.00    -0.225 NA
BRANCH   9  14
ATOM     14  C   UNL d   1      74.374  71.108  90.318  0.00  0.00     0.214 C 
ATOM     15  O   UNL d   1      74.157  70.017  89.686  0.00  0.00    -0.644 OA
ATOM     16  O   UNL d   1      73.512  71.689  91.068  0.00  0.00    -0.644 OA
ENDBRANCH   9  14
ENDBRANCH   7   8
ENDBRANCH   1   7
BRANCH   5  17
ATOM     17  C   UNL d   1      77.544  66.685  87.951  0.00  0.00     0.419 C 
ATOM     18  F   UNL d   1      76.652  67.501  87.312  0.00  0.00    -0.166 F 
ATOM     19  F   UNL d   1      78.626  66.610  87.125  0.00  0.00    -0.166 F 
ATOM     20  F   UNL d   1      76.974  65.439  87.892  0.00  0.00    -0.166 F 
ENDBRANCH   5  17
TORSDOF 4
ENDMDL
MODEL 9
REMARK VINA RESULT:      -6.1     14.097     15.418
REMARK  4 active torsions:
REMARK  status: ('A' for Active; 'I' for Inactive)
REMARK    1  A    between atoms: C_2  and  C_4 
REMARK    2  A    between atoms: C_5  and  N_6 
REMARK    3  A    between atoms: N_6  and  C_7 
REMARK    4  A    between atoms: C_11  and  C_13 
ROOT
ATOM      1  C   UNL d   1      71.518  89.326 101.939  0.00  0.00     0.083 A 
ATOM      2  C   UNL d   1      72.548  88.995 101.050  0.00  0.00     0.019 A 
ATOM      3  C   UNL d   1      72.321  88.313  99.856  0.00  0.00     0.002 A 
ATOM      4  C   UNL d   1      71.031  87.920  99.528  0.00  0.00     0.004 A 
ATOM      5  C   UNL d   1      69.973  88.220 100.383  0.00  0.00     0.073 A 
ATOM      6  C   UNL d   1      70.232  88.913 101.567  0.00  0.00     0.023 A 
ENDROOT
BRANCH   1   7
ATOM      7  N   UNL d   1      71.638  89.970 103.125  0.00  0.00    -0.227 NA
BRANCH   7   8
ATOM      8  C   UNL d   1      72.114  89.398 104.261  0.00  0.00     0.168 A 
ATOM      9  C   UNL d   1      73.382  89.738 104.783  0.00  0.00     0.100 A 
ATOM     10  C   UNL d   1      73.831  89.076 105.933  0.00  0.00     0.011 A 
ATOM     11  C   UNL d   1      73.060  88.108 106.548  0.00  0.00     0.021 A 
ATOM     12  C   UNL d   1      71.847  87.825 105.964  0.00  0.00     0.101 A 
ATOM     13  N   UNL d   1      71.367  88.421 104.856  0.00  0.00    -0.225 NA
BRANCH   9  14
ATOM     14  C   UNL d   1      74.342  90.746 104.213  0.00  0.00     0.214 C 
ATOM     15  O   UNL d   1      74.544  91.829 104.863  0.00  0.00    -0.644 OA
ATOM     16  O   UNL d   1      75.039  90.370 103.205  0.00  0.00    -0.644 OA
ENDBRANCH   9  14
ENDBRANCH   7   8
ENDBRANCH   1   7
BRANCH   5  17
ATOM     17  C   UNL d   1      68.600  87.744 100.067  0.00  0.00     0.419 C 
ATOM     18  F   UNL d   1      67.644  88.296 100.874  0.00  0.00    -0.166 F 
ATOM     19  F   UNL d   1      68.179  87.977  98.791  0.00  0.00    -0.166 F 
ATOM     20  F   UNL d   1      68.457  86.391 100.239  0.00  0.00    -0.166 F 
ENDBRANCH   5  17
TORSDOF 4
ENDMDL
MODEL 10
REMARK VINA RESULT:      -6.1     20.279     21.503
REMARK  4 active torsions:
REMARK  status: ('A' for Active; 'I' for Inactive)
REMARK    1  A    between atoms: C_2  and  C_4 
REMARK    2  A    between atoms: C_5  and  N_6 
REMARK    3  A    between atoms: N_6  and  C_7 
REMARK    4  A    between atoms: C_11  and  C_13 
ROOT
ATOM      1  C   UNL d   1      64.329  89.456  92.168  0.00  0.00     0.083 A 
ATOM      2  C   UNL d   1      65.207  88.365  92.195  0.00  0.00     0.019 A 
ATOM      3  C   UNL d   1      64.964  87.187  91.491  0.00  0.00     0.002 A 
ATOM      4  C   UNL d   1      63.800  87.065  90.745  0.00  0.00     0.004 A 
ATOM      5  C   UNL d   1      62.892  88.120  90.692  0.00  0.00     0.073 A 
ATOM      6  C   UNL d   1      63.169  89.290  91.400  0.00  0.00     0.023 A 
ENDROOT
BRANCH   1   7
ATOM      7  N   UNL d   1      64.467  90.632  92.827  0.00  0.00    -0.227 NA
BRANCH   7   8
ATOM      8  C   UNL d   1      64.576  90.746  94.176  0.00  0.00     0.168 A 
ATOM      9  C   UNL d   1      63.446  90.972  94.991  0.00  0.00     0.100 A 
ATOM     10  C   UNL d   1      63.637  91.125  96.371  0.00  0.00     0.011 A 
ATOM     11  C   UNL d   1      64.899  91.061  96.930  0.00  0.00     0.021 A 
ATOM     12  C   UNL d   1      65.947  90.856  96.062  0.00  0.00     0.101 A 
ATOM     13  N   UNL d   1      65.825  90.711  94.729  0.00  0.00    -0.225 NA
BRANCH   9  14
ATOM     14  C   UNL d   1      62.020  91.093  94.529  0.00  0.00     0.214 C 
ATOM     15  O   UNL d   1      61.133  90.367  95.096  0.00  0.00    -0.644 OA
ATOM     16  O   UNL d   1      61.756  92.055  93.723  0.00  0.00    -0.644 OA
ENDBRANCH   9  14
ENDBRANCH   7   8
ENDBRANCH   1   7
BRANCH   5  17
ATOM     17  C   UNL d   1      61.614  87.968  89.947  0.00  0.00     0.419 C 
ATOM     18  F   UNL d   1      60.521  88.339  90.680  0.00  0.00    -0.166 F 
ATOM     19  F   UNL d   1      61.528  88.673  88.782  0.00  0.00    -0.166 F 
ATOM     20  F   UNL d   1      61.363  86.669  89.587  0.00  0.00    -0.166 F 
ENDBRANCH   5  17
TORSDOF 4
ENDMDL
MODEL 11
REMARK VINA RESULT:      -6.0     13.540     14.746
REMARK  4 active torsions:
REMARK  status: ('A' for Active; 'I' for Inactive)
REMARK    1  A    between atoms: C_2  and  C_4 
REMARK    2  A    between atoms: C_5  and  N_6 
REMARK    3  A    between atoms: N_6  and  C_7 
REMARK    4  A    between atoms: C_11  and  C_13 
ROOT
ATOM      1  C   UNL d   1      77.830  67.706  89.968  0.00  0.00     0.083 A 
ATOM      2  C   UNL d   1      78.393  66.589  89.337  0.00  0.00     0.019 A 
ATOM      3  C   UNL d   1      78.281  66.365  87.967  0.00  0.00     0.002 A 
ATOM      4  C   UNL d   1      77.570  67.263  87.183  0.00  0.00     0.004 A 
ATOM      5  C   UNL d   1      76.986  68.385  87.765  0.00  0.00     0.073 A 
ATOM      6  C   UNL d   1      77.124  68.587  89.139  0.00  0.00     0.023 A 
ENDROOT
BRANCH   1   7
ATOM      7  N   UNL d   1      77.870  68.003  91.290  0.00  0.00    -0.227 NA
BRANCH   7   8
ATOM      8  C   UNL d   1      77.951  69.263  91.789  0.00  0.00     0.168 A 
ATOM      9  C   UNL d   1      76.822  69.918  92.330  0.00  0.00     0.100 A 
ATOM     10  C   UNL d   1      76.968  71.235  92.786  0.00  0.00     0.011 A 
ATOM     11  C   UNL d   1      78.182  71.889  92.708  0.00  0.00     0.021 A 
ATOM     12  C   UNL d   1      79.225  71.186  92.150  0.00  0.00     0.101 A 
ATOM     13  N   UNL d   1      79.143  69.924  91.688  0.00  0.00    -0.225 NA
BRANCH   9  14
ATOM     14  C   UNL d   1      75.436  69.350  92.457  0.00  0.00     0.214 C 
ATOM     15  O   UNL d   1      75.101  68.802  93.563  0.00  0.00    -0.644 OA
ATOM     16  O   UNL d   1      74.615  69.620  91.510  0.00  0.00    -0.644 OA
ENDBRANCH   9  14
ENDBRANCH   7   8
ENDBRANCH   1   7
BRANCH   5  17
ATOM     17  C   UNL d   1      76.169  69.315  86.940  0.00  0.00     0.419 C 
ATOM     18  F   UNL d   1      76.424  70.631  87.207  0.00  0.00    -0.166 F 
ATOM     19  F   UNL d   1      76.315  69.182  85.590  0.00  0.00    -0.166 F 
ATOM     20  F   UNL d   1      74.823  69.173  87.160  0.00  0.00    -0.166 F 
ENDBRANCH   5  17
TORSDOF 4
ENDMDL
MODEL 12
REMARK VINA RESULT:      -5.9     11.966     13.151
REMARK  4 active torsions:
REMARK  status: ('A' for Active; 'I' for Inactive)
REMARK    1  A    between atoms: C_2  and  C_4 
REMARK    2  A    between atoms: C_5  and  N_6 
REMARK    3  A    between atoms: N_6  and  C_7 
REMARK    4  A    between atoms: C_11  and  C_13 
ROOT
ATOM      1  C   UNL d   1      78.062  70.963  89.607  0.00  0.00     0.083 A 
ATOM      2  C   UNL d   1      78.160  70.302  90.838  0.00  0.00     0.019 A 
ATOM      3  C   UNL d   1      77.915  68.937  90.980  0.00  0.00     0.002 A 
ATOM      4  C   UNL d   1      77.537  68.192  89.871  0.00  0.00     0.004 A 
ATOM      5  C   UNL d   1      77.418  68.806  88.627  0.00  0.00     0.073 A 
ATOM      6  C   UNL d   1      77.680  70.172  88.515  0.00  0.00     0.023 A 
ENDROOT
BRANCH   1   7
ATOM      7  N   UNL d   1      78.263  72.282  89.370  0.00  0.00    -0.227 NA
BRANCH   7   8
ATOM      8  C   UNL d   1      77.428  73.270  89.781  0.00  0.00     0.168 A 
ATOM      9  C   UNL d   1      77.919  74.526  90.201  0.00  0.00     0.100 A 
ATOM     10  C   UNL d   1      77.003  75.484  90.657  0.00  0.00     0.011 A 
ATOM     11  C   UNL d   1      75.649  75.215  90.702  0.00  0.00     0.021 A 
ATOM     12  C   UNL d   1      75.257  73.960  90.293  0.00  0.00     0.101 A 
ATOM     13  N   UNL d   1      76.090  72.998  89.855  0.00  0.00    -0.225 NA
BRANCH   9  14
ATOM     14  C   UNL d   1      79.360  74.956  90.234  0.00  0.00     0.214 C 
ATOM     15  O   UNL d   1      80.024  74.774  91.312  0.00  0.00    -0.644 OA
ATOM     16  O   UNL d   1      79.882  75.305  89.117  0.00  0.00    -0.644 OA
ENDBRANCH   9  14
ENDBRANCH   7   8
ENDBRANCH   1   7
BRANCH   5  17
ATOM     17  C   UNL d   1      76.950  68.025  87.451  0.00  0.00     0.419 C 
ATOM     18  F   UNL d   1      77.684  68.266  86.323  0.00  0.00    -0.166 F 
ATOM     19  F   UNL d   1      76.957  66.670  87.607  0.00  0.00    -0.166 F 
ATOM     20  F   UNL d   1      75.661  68.327  87.094  0.00  0.00    -0.166 F 
ENDBRANCH   5  17
TORSDOF 4
ENDMDL
MODEL 13
REMARK VINA RESULT:      -5.8     17.552     18.851
REMARK  4 active torsions:
REMARK  status: ('A' for Active; 'I' for Inactive)
REMARK    1  A    between atoms: C_2  and  C_4 
REMARK    2  A    between atoms: C_5  and  N_6 
REMARK    3  A    between atoms: N_6  and  C_7 
REMARK    4  A    between atoms: C_11  and  C_13 
ROOT
ATOM      1  C   UNL d   1      65.727  88.150  93.189  0.00  0.00     0.083 A 
ATOM      2  C   UNL d   1      64.875  87.455  92.321  0.00  0.00     0.019 A 
ATOM      3  C   UNL d   1      65.306  86.379  91.546  0.00  0.00     0.002 A 
ATOM      4  C   UNL d   1      66.634  85.980  91.610  0.00  0.00     0.004 A 
ATOM      5  C   UNL d   1      67.521  86.644  92.453  0.00  0.00     0.073 A 
ATOM      6  C   UNL d   1      67.057  87.711  93.224  0.00  0.00     0.023 A 
ENDROOT
BRANCH   1   7
ATOM      7  N   UNL d   1      65.409  89.213  93.967  0.00  0.00    -0.227 NA
BRANCH   7   8
ATOM      8  C   UNL d   1      64.144  89.548  94.327  0.00  0.00     0.168 A 
ATOM      9  C   UNL d   1      63.462  90.622  93.714  0.00  0.00     0.100 A 
ATOM     10  C   UNL d   1      62.174  90.941  94.166  0.00  0.00     0.011 A 
ATOM     11  C   UNL d   1      61.578  90.231  95.189  0.00  0.00     0.021 A 
ATOM     12  C   UNL d   1      62.319  89.212  95.743  0.00  0.00     0.101 A 
ATOM     13  N   UNL d   1      63.561  88.865  95.358  0.00  0.00    -0.225 NA
BRANCH   9  14
ATOM     14  C   UNL d   1      63.987  91.501  92.612  0.00  0.00     0.214 C 
ATOM     15  O   UNL d   1      63.354  91.528  91.501  0.00  0.00    -0.644 OA
ATOM     16  O   UNL d   1      64.930  92.312  92.923  0.00  0.00    -0.644 OA
ENDBRANCH   9  14
ENDBRANCH   7   8
ENDBRANCH   1   7
BRANCH   5  17
ATOM     17  C   UNL d   1      68.958  86.261  92.475  0.00  0.00     0.419 C 
ATOM     18  F   UNL d   1      69.151  84.908  92.449  0.00  0.00    -0.166 F 
ATOM     19  F   UNL d   1      69.712  86.757  91.453  0.00  0.00    -0.166 F 
ATOM     20  F   UNL d   1      69.599  86.679  93.614  0.00  0.00    -0.166 F 
ENDBRANCH   5  17
TORSDOF 4
ENDMDL
MODEL 14
REMARK VINA RESULT:      -5.7     21.932     23.560
REMARK  4 active torsions:
REMARK  status: ('A' for Active; 'I' for Inactive)
REMARK    1  A    between atoms: C_2  and  C_4 
REMARK    2  A    between atoms: C_5  and  N_6 
REMARK    3  A    between atoms: N_6  and  C_7 
REMARK    4  A    between atoms: C_11  and  C_13 
ROOT
ATOM      1  C   UNL d   1      60.300  87.881  92.221  0.00  0.00     0.083 A 
ATOM      2  C   UNL d   1      59.137  88.564  92.600  0.00  0.00     0.019 A 
ATOM      3  C   UNL d   1      57.918  88.394  91.947  0.00  0.00     0.002 A 
ATOM      4  C   UNL d   1      57.839  87.533  90.861  0.00  0.00     0.004 A 
ATOM      5  C   UNL d   1      58.970  86.836  90.441  0.00  0.00     0.073 A 
ATOM      6  C   UNL d   1      60.174  87.020  91.123  0.00  0.00     0.023 A 
ENDROOT
BRANCH   1   7
ATOM      7  N   UNL d   1      61.530  87.990  92.779  0.00  0.00    -0.227 NA
BRANCH   7   8
ATOM      8  C   UNL d   1      62.363  89.046  92.596  0.00  0.00     0.168 A 
ATOM      9  C   UNL d   1      63.409  89.005  91.649  0.00  0.00     0.100 A 
ATOM     10  C   UNL d   1      64.260  90.114  91.545  0.00  0.00     0.011 A 
ATOM     11  C   UNL d   1      64.090  91.225  92.348  0.00  0.00     0.021 A 
ATOM     12  C   UNL d   1      63.058  91.174  93.257  0.00  0.00     0.101 A 
ATOM     13  N   UNL d   1      62.216  90.135  93.409  0.00  0.00    -0.225 NA
BRANCH   9  14
ATOM     14  C   UNL d   1      63.736  87.864  90.726  0.00  0.00     0.214 C 
ATOM     15  O   UNL d   1      64.363  86.856  91.203  0.00  0.00    -0.644 OA
ATOM     16  O   UNL d   1      63.198  87.892  89.562  0.00  0.00    -0.644 OA
ENDBRANCH   9  14
ENDBRANCH   7   8
ENDBRANCH   1   7
BRANCH   5  17
ATOM     17  C   UNL d   1      58.904  85.963  89.239  0.00  0.00     0.419 C 
ATOM     18  F   UNL d   1      57.724  86.077  88.559  0.00  0.00    -0.166 F 
ATOM     19  F   UNL d   1      59.882  86.169  88.311  0.00  0.00    -0.166 F 
ATOM     20  F   UNL d   1      58.995  84.630  89.549  0.00  0.00    -0.166 F 
ENDBRANCH   5  17
TORSDOF 4
ENDMDL
MODEL 15
REMARK VINA RESULT:      -5.6      2.051      2.781
REMARK  4 active torsions:
REMARK  status: ('A' for Active; 'I' for Inactive)
REMARK    1  A    between atoms: C_2  and  C_4 
REMARK    2  A    between atoms: C_5  and  N_6 
REMARK    3  A    between atoms: N_6  and  C_7 
REMARK    4  A    between atoms: C_11  and  C_13 
ROOT
ATOM      1  C   UNL d   1      82.272  80.066  96.144  0.00  0.00     0.083 A 
ATOM      2  C   UNL d   1      82.318  81.446  96.377  0.00  0.00     0.019 A 
ATOM      3  C   UNL d   1      83.515  82.155  96.455  0.00  0.00     0.002 A 
ATOM      4  C   UNL d   1      84.720  81.480  96.319  0.00  0.00     0.004 A 
ATOM      5  C   UNL d   1      84.726  80.106  96.094  0.00  0.00     0.073 A 
ATOM      6  C   UNL d   1      83.510  79.425  96.011  0.00  0.00     0.023 A 
ENDROOT
BRANCH   1   7
ATOM      7  N   UNL d   1      81.165  79.287  96.068  0.00  0.00    -0.227 NA
BRANCH   7   8
ATOM      8  C   UNL d   1      79.893  79.757  96.121  0.00  0.00     0.168 A 
ATOM      9  C   UNL d   1      79.173  79.805  97.335  0.00  0.00     0.100 A 
ATOM     10  C   UNL d   1      77.848  80.259  97.309  0.00  0.00     0.011 A 
ATOM     11  C   UNL d   1      77.248  80.650  96.128  0.00  0.00     0.021 A 
ATOM     12  C   UNL d   1      78.014  80.555  94.989  0.00  0.00     0.101 A 
ATOM     13  N   UNL d   1      79.287  80.118  94.950  0.00  0.00    -0.225 NA
BRANCH   9  14
ATOM     14  C   UNL d   1      79.678  79.390  98.690  0.00  0.00     0.214 C 
ATOM     15  O   UNL d   1      80.254  80.268  99.420  0.00  0.00    -0.644 OA
ATOM     16  O   UNL d   1      79.329  78.227  99.103  0.00  0.00    -0.644 OA
ENDBRANCH   9  14
ENDBRANCH   7   8
ENDBRANCH   1   7
BRANCH   5  17
ATOM     17  C   UNL d   1      86.015  79.368  96.012  0.00  0.00     0.419 C 
ATOM     18  F   UNL d   1      86.581  79.146  97.237  0.00  0.00    -0.166 F 
ATOM     19  F   UNL d   1      85.953  78.145  95.411  0.00  0.00    -0.166 F 
ATOM     20  F   UNL d   1      86.972  80.053  95.309  0.00  0.00    -0.166 F 
ENDBRANCH   5  17
TORSDOF 4
ENDMDL
MODEL 16
REMARK VINA RESULT:      -5.6     13.375     14.546
REMARK  4 active torsions:
REMARK  status: ('A' for Active; 'I' for Inactive)
REMARK    1  A    between atoms: C_2  and  C_4 
REMARK    2  A    between atoms: C_5  and  N_6 
REMARK    3  A    between atoms: N_6  and  C_7 
REMARK    4  A    between atoms: C_11  and  C_13 
ROOT
ATOM      1  C   UNL d   1      78.094  69.205  89.050  0.00  0.00     0.083 A 
ATOM      2  C   UNL d   1      79.160  69.357  89.946  0.00  0.00     0.019 A 
ATOM      3  C   UNL d   1      79.879  68.275  90.450  0.00  0.00     0.002 A 
ATOM      4  C   UNL d   1      79.525  66.986  90.076  0.00  0.00     0.004 A 
ATOM      5  C   UNL d   1      78.467  66.783  89.194  0.00  0.00     0.073 A 
ATOM      6  C   UNL d   1      77.773  67.888  88.699  0.00  0.00     0.023 A 
ENDROOT
BRANCH   1   7
ATOM      7  N   UNL d   1      77.327  70.188  88.520  0.00  0.00    -0.227 NA
BRANCH   7   8
ATOM      8  C   UNL d   1      76.450  70.943  89.230  0.00  0.00     0.168 A 
ATOM      9  C   UNL d   1      76.781  72.245  89.667  0.00  0.00     0.100 A 
ATOM     10  C   UNL d   1      75.846  72.950  90.436  0.00  0.00     0.011 A 
ATOM     11  C   UNL d   1      74.626  72.393  90.767  0.00  0.00     0.021 A 
ATOM     12  C   UNL d   1      74.391  71.114  90.317  0.00  0.00     0.101 A 
ATOM     13  N   UNL d   1      75.254  70.385  89.584  0.00  0.00    -0.225 NA
BRANCH   9  14
ATOM     14  C   UNL d   1      78.073  72.972  89.411  0.00  0.00     0.214 C 
ATOM     15  O   UNL d   1      78.405  73.213  88.200  0.00  0.00    -0.644 OA
ATOM     16  O   UNL d   1      78.665  73.470  90.433  0.00  0.00    -0.644 OA
ENDBRANCH   9  14
ENDBRANCH   7   8
ENDBRANCH   1   7
BRANCH   5  17
ATOM     17  C   UNL d   1      78.043  65.401  88.842  0.00  0.00     0.419 C 
ATOM     18  F   UNL d   1      77.741  64.640  89.937  0.00  0.00    -0.166 F 
ATOM     19  F   UNL d   1      76.954  65.313  88.025  0.00  0.00    -0.166 F 
ATOM     20  F   UNL d   1      79.024  64.697  88.193  0.00  0.00    -0.166 F 
ENDBRANCH   5  17
TORSDOF 4
ENDMDL
MODEL 17
REMARK VINA RESULT:      -5.6     13.063     14.368
REMARK  4 active torsions:
REMARK  status: ('A' for Active; 'I' for Inactive)
REMARK    1  A    between atoms: C_2  and  C_4 
REMARK    2  A    between atoms: C_5  and  N_6 
REMARK    3  A    between atoms: N_6  and  C_7 
REMARK    4  A    between atoms: C_11  and  C_13 
ROOT
ATOM      1  C   UNL d   1      77.549  68.312  90.134  0.00  0.00     0.083 A 
ATOM      2  C   UNL d   1      78.013  67.046  89.755  0.00  0.00     0.019 A 
ATOM      3  C   UNL d   1      77.885  66.556  88.456  0.00  0.00     0.002 A 
ATOM      4  C   UNL d   1      77.257  67.333  87.492  0.00  0.00     0.004 A 
ATOM      5  C   UNL d   1      76.772  68.596  87.822  0.00  0.00     0.073 A 
ATOM      6  C   UNL d   1      76.924  69.062  89.129  0.00  0.00     0.023 A 
ENDROOT
BRANCH   1   7
ATOM      7  N   UNL d   1      77.611  68.868  91.368  0.00  0.00    -0.227 NA
BRANCH   7   8
ATOM      8  C   UNL d   1      77.890  70.176  91.605  0.00  0.00     0.168 A 
ATOM      9  C   UNL d   1      79.213  70.667  91.570  0.00  0.00     0.100 A 
ATOM     10  C   UNL d   1      79.433  72.018  91.870  0.00  0.00     0.011 A 
ATOM     11  C   UNL d   1      78.387  72.858  92.197  0.00  0.00     0.021 A 
ATOM     12  C   UNL d   1      77.132  72.295  92.226  0.00  0.00     0.101 A 
ATOM     13  N   UNL d   1      76.860  71.004  91.957  0.00  0.00    -0.225 NA
BRANCH   9  14
ATOM     14  C   UNL d   1      80.452  69.873  91.259  0.00  0.00     0.214 C 
ATOM     15  O   UNL d   1      80.690  69.570  90.040  0.00  0.00    -0.644 OA
ATOM     16  O   UNL d   1      81.290  69.714  92.218  0.00  0.00    -0.644 OA
ENDBRANCH   9  14
ENDBRANCH   7   8
ENDBRANCH   1   7
BRANCH   5  17
ATOM     17  C   UNL d   1      76.041  69.403  86.810  0.00  0.00     0.419 C 
ATOM     18  F   UNL d   1      76.181  70.750  86.998  0.00  0.00    -0.166 F 
ATOM     19  F   UNL d   1      76.397  69.177  85.512  0.00  0.00    -0.166 F 
ATOM     20  F   UNL d   1      74.687  69.189  86.841  0.00  0.00    -0.166 F 
ENDBRANCH   5  17
TORSDOF 4
ENDMDL
MODEL 18
REMARK VINA RESULT:      -5.6     20.578     22.169
REMARK  4 active torsions:
REMARK  status: ('A' for Active; 'I' for Inactive)
REMARK    1  A    between atoms: C_2  and  C_4 
REMARK    2  A    between atoms: C_5  and  N_6 
REMARK    3  A    between atoms: N_6  and  C_7 
REMARK    4  A    between atoms: C_11  and  C_13 
ROOT
ATOM      1  C   UNL d   1      62.155  88.189  92.460  0.00  0.00     0.083 A 
ATOM      2  C   UNL d   1      61.017  88.541  93.198  0.00  0.00     0.019 A 
ATOM      3  C   UNL d   1      59.725  88.225  92.784  0.00  0.00     0.002 A 
ATOM      4  C   UNL d   1      59.537  87.552  91.584  0.00  0.00     0.004 A 
ATOM      5  C   UNL d   1      60.636  87.187  90.811  0.00  0.00     0.073 A 
ATOM      6  C   UNL d   1      61.919  87.509  91.258  0.00  0.00     0.023 A 
ENDROOT
BRANCH   1   7
ATOM      7  N   UNL d   1      63.446  88.463  92.768  0.00  0.00    -0.227 NA
BRANCH   7   8
ATOM      8  C   UNL d   1      63.873  88.857  93.995  0.00  0.00     0.168 A 
ATOM      9  C   UNL d   1      64.055  90.222  94.311  0.00  0.00     0.100 A 
ATOM     10  C   UNL d   1      64.542  90.555  95.582  0.00  0.00     0.011 A 
ATOM     11  C   UNL d   1      64.844  89.579  96.511  0.00  0.00     0.021 A 
ATOM     12  C   UNL d   1      64.655  88.274  96.116  0.00  0.00     0.101 A 
ATOM     13  N   UNL d   1      64.199  87.893  94.908  0.00  0.00    -0.225 NA
BRANCH   9  14
ATOM     14  C   UNL d   1      63.797  91.391  93.401  0.00  0.00     0.214 C 
ATOM     15  O   UNL d   1      62.585  91.734  93.178  0.00  0.00    -0.644 OA
ATOM     16  O   UNL d   1      64.817  92.087  93.056  0.00  0.00    -0.644 OA
ENDBRANCH   9  14
ENDBRANCH   7   8
ENDBRANCH   1   7
BRANCH   5  17
ATOM     17  C   UNL d   1      60.436  86.524  89.495  0.00  0.00     0.419 C 
ATOM     18  F   UNL d   1      60.985  87.222  88.456  0.00  0.00    -0.166 F 
ATOM     19  F   UNL d   1      60.941  85.261  89.393  0.00  0.00    -0.166 F 
ATOM     20  F   UNL d   1      59.112  86.396  89.164  0.00  0.00    -0.166 F 
ENDBRANCH   5  17
TORSDOF 4
ENDMDL
MODEL 19
REMARK VINA RESULT:      -5.6     20.648     22.150
REMARK  4 active torsions:
REMARK  status: ('A' for Active; 'I' for Inactive)
REMARK    1  A    between atoms: C_2  and  C_4 
REMARK    2  A    between atoms: C_5  and  N_6 
REMARK    3  A    between atoms: N_6  and  C_7 
REMARK    4  A    between atoms: C_11  and  C_13 
ROOT
ATOM      1  C   UNL d   1      62.995  89.064  92.957  0.00  0.00     0.083 A 
ATOM      2  C   UNL d   1      63.436  89.952  91.968  0.00  0.00     0.019 A 
ATOM      3  C   UNL d   1      64.287  91.021  92.242  0.00  0.00     0.002 A 
ATOM      4  C   UNL d   1      64.709  91.241  93.546  0.00  0.00     0.004 A 
ATOM      5  C   UNL d   1      64.292  90.390  94.566  0.00  0.00     0.073 A 
ATOM      6  C   UNL d   1      63.447  89.322  94.257  0.00  0.00     0.023 A 
ENDROOT
BRANCH   1   7
ATOM      7  N   UNL d   1      62.159  88.010  92.794  0.00  0.00    -0.227 NA
BRANCH   7   8
ATOM      8  C   UNL d   1      60.882  88.109  92.345  0.00  0.00     0.168 A 
ATOM      9  C   UNL d   1      60.512  87.645  91.063  0.00  0.00     0.100 A 
ATOM     10  C   UNL d   1      59.186  87.820  90.646  0.00  0.00     0.011 A 
ATOM     11  C   UNL d   1      58.255  88.436  91.459  0.00  0.00     0.021 A 
ATOM     12  C   UNL d   1      58.703  88.875  92.684  0.00  0.00     0.101 A 
ATOM     13  N   UNL d   1      59.964  88.743  93.136  0.00  0.00    -0.225 NA
BRANCH   9  14
ATOM     14  C   UNL d   1      61.413  86.982  90.059  0.00  0.00     0.214 C 
ATOM     15  O   UNL d   1      61.262  85.732  89.836  0.00  0.00    -0.644 OA
ATOM     16  O   UNL d   1      62.152  87.755  89.351  0.00  0.00    -0.644 OA
ENDBRANCH   9  14
ENDBRANCH   7   8
ENDBRANCH   1   7
BRANCH   5  17
ATOM     17  C   UNL d   1      64.689  90.661  95.973  0.00  0.00     0.419 C 
ATOM     18  F   UNL d   1      63.843  91.526  96.610  0.00  0.00    -0.166 F 
ATOM     19  F   UNL d   1      64.766  89.564  96.781  0.00  0.00    -0.166 F 
ATOM     20  F   UNL d   1      65.923  91.251  96.070  0.00  0.00    -0.166 F 
ENDBRANCH   5  17
TORSDOF 4
ENDMDL
MODEL 20
REMARK VINA RESULT:      -5.5     15.435     17.530
REMARK  4 active torsions:
REMARK  status: ('A' for Active; 'I' for Inactive)
REMARK    1  A    between atoms: C_2  and  C_4 
REMARK    2  A    between atoms: C_5  and  N_6 
REMARK    3  A    between atoms: N_6  and  C_7 
REMARK    4  A    between atoms: C_11  and  C_13 
ROOT
ATOM      1  C   UNL d   1      68.801  73.339 103.681  0.00  0.00     0.083 A 
ATOM      2  C   UNL d   1      69.050  73.820 102.389  0.00  0.00     0.019 A 
ATOM      3  C   UNL d   1      69.765  74.991 102.148  0.00  0.00     0.002 A 
ATOM      4  C   UNL d   1      70.239  75.735 103.219  0.00  0.00     0.004 A 
ATOM      5  C   UNL d   1      70.010  75.303 104.523  0.00  0.00     0.073 A 
ATOM      6  C   UNL d   1      69.299  74.120 104.732  0.00  0.00     0.023 A 
ENDROOT
BRANCH   1   7
ATOM      7  N   UNL d   1      68.106  72.225 104.018  0.00  0.00    -0.227 NA
BRANCH   7   8
ATOM      8  C   UNL d   1      67.097  71.699 103.277  0.00  0.00     0.168 A 
ATOM      9  C   UNL d   1      67.329  70.666 102.342  0.00  0.00     0.100 A 
ATOM     10  C   UNL d   1      66.250  70.202 101.578  0.00  0.00     0.011 A 
ATOM     11  C   UNL d   1      64.985  70.737 101.726  0.00  0.00     0.021 A 
ATOM     12  C   UNL d   1      64.851  71.753 102.645  0.00  0.00     0.101 A 
ATOM     13  N   UNL d   1      65.850  72.246 103.400  0.00  0.00    -0.225 NA
BRANCH   9  14
ATOM     14  C   UNL d   1      68.647  70.004 102.051  0.00  0.00     0.214 C 
ATOM     15  O   UNL d   1      68.946  68.936 102.688  0.00  0.00    -0.644 OA
ATOM     16  O   UNL d   1      69.305  70.449 101.044  0.00  0.00    -0.644 OA
ENDBRANCH   9  14
ENDBRANCH   7   8
ENDBRANCH   1   7
BRANCH   5  17
ATOM     17  C   UNL d   1      70.459  76.130 105.674  0.00  0.00     0.419 C 
ATOM     18  F   UNL d   1      70.836  75.383 106.755  0.00  0.00    -0.166 F 
ATOM     19  F   UNL d   1      71.510  76.963 105.422  0.00  0.00    -0.166 F 
ATOM     20  F   UNL d   1      69.471  76.952 106.152  0.00  0.00    -0.166 F 
ENDBRANCH   5  17
TORSDOF 4
ENDMDL
