MODEL 1
REMARK VINA RESULT:      -7.5      0.000      0.000
REMARK  10 active torsions:
REMARK  status: ('A' for Active; 'I' for Inactive)
REMARK    1  A    between atoms: C_2  and  C_4 
REMARK    2  A    between atoms: C_5  and  C_4 
REMARK    3  A    between atoms: C_5  and  C_6 
REMARK    4  A    between atoms: C_5  and  N_14 
REMARK       I    between atoms: C_6  and  N_8 
REMARK    5  A    between atoms: N_8  and  C_9 
REMARK    6  A    between atoms: C_15  and  N_14 
REMARK    7  A    between atoms: C_15  and  C_16 
REMARK    8  A    between atoms: C_15  and  C_32 
REMARK    9  A    between atoms: C_19  and  C_22 
REMARK   10  A    between atoms: C_25  and  S_28 
ROOT
ATOM      1  C   UNL d   1      65.524  90.219  95.527  0.00  0.00     0.166 A 
ATOM      2  C   UNL d   1      65.946  89.351  96.613  0.00  0.00     0.040 A 
ATOM      3  C   UNL d   1      65.032  90.495  96.869  0.00  0.00     0.040 A 
ATOM      4  C   UNL d   1      66.526  91.169  95.089  0.00  0.00     0.095 C 
ATOM      5  N   UNL d   1      67.349  91.969  94.876  0.00  0.00    -0.194 NA
ENDROOT
BRANCH   1   6
ATOM      6  N   UNL d   1      64.491  89.643  94.644  0.00  0.00    -0.222 NA
ATOM      7  C   UNL d   1      63.563  90.466  94.138  0.00  0.00     0.300 C 
ATOM      8  O   UNL d   1      63.575  91.693  94.144  0.00  0.00    -0.263 OA
BRANCH   7   9
ATOM      9  C   UNL d   1      62.421  89.672  93.489  0.00  0.00     0.171 C 
BRANCH   9  10
ATOM     10  C   UNL d   1      61.692  88.732  94.285  0.00  0.00    -0.074 C 
BRANCH  10  11
ATOM     11  C   UNL d   1      61.162  87.673  95.123  0.00  0.00     0.181 C 
ATOM     12  C   UNL d   1      62.178  86.539  95.498  0.00  0.00     0.048 C 
ATOM     13  C   UNL d   1      59.861  86.999  94.554  0.00  0.00     0.048 C 
ATOM     14  F   UNL d   1      60.768  88.201  96.321  0.00  0.00    -0.228 F 
ENDBRANCH  10  11
ENDBRANCH   9  10
BRANCH   9  15
ATOM     15  N   UNL d   1      62.361  89.590  92.137  0.00  0.00    -0.229 NA
BRANCH  15  16
ATOM     16  C   UNL d   1      62.902  88.465  91.595  0.00  0.00     0.153 C 
BRANCH  16  17
ATOM     17  C   UNL d   1      61.954  87.511  90.962  0.00  0.00     0.022 A 
ATOM     18  C   UNL d   1      61.145  87.894  89.892  0.00  0.00     0.001 A 
ATOM     19  C   UNL d   1      60.182  87.031  89.366  0.00  0.00     0.000 A 
ATOM     20  C   UNL d   1      59.997  85.744  89.883  0.00  0.00     0.000 A 
ATOM     21  C   UNL d   1      60.850  85.342  90.915  0.00  0.00     0.000 A 
ATOM     22  C   UNL d   1      61.810  86.206  91.442  0.00  0.00     0.001 A 
BRANCH  20  23
ATOM     23  C   UNL d   1      58.918  84.874  89.399  0.00  0.00     0.000 A 
ATOM     24  C   UNL d   1      58.063  85.282  88.365  0.00  0.00     0.001 A 
ATOM     25  C   UNL d   1      56.994  84.493  87.947  0.00  0.00     0.011 A 
ATOM     26  C   UNL d   1      56.772  83.275  88.573  0.00  0.00     0.084 A 
ATOM     27  C   UNL d   1      57.609  82.823  89.583  0.00  0.00     0.011 A 
ATOM     28  C   UNL d   1      58.672  83.625  89.989  0.00  0.00     0.001 A 
BRANCH  26  29
ATOM     29  S   UNL d   1      55.437  82.275  88.106  0.00  0.00     0.191 S 
ATOM     30  O   UNL d   1      54.500  82.094  89.190  0.00  0.00    -0.222 OA
ATOM     31  O   UNL d   1      55.834  81.248  87.169  0.00  0.00    -0.222 OA
ATOM     32  C   UNL d   1      54.383  83.193  87.003  0.00  0.00     0.145 C 
ENDBRANCH  26  29
ENDBRANCH  20  23
ENDBRANCH  16  17
BRANCH  16  33
ATOM     33  C   UNL d   1      64.339  88.428  91.131  0.00  0.00     0.435 C 
ATOM     34  F   UNL d   1      65.131  87.662  91.943  0.00  0.00    -0.165 F 
ATOM     35  F   UNL d   1      64.539  87.949  89.873  0.00  0.00    -0.165 F 
ATOM     36  F   UNL d   1      64.905  89.673  91.145  0.00  0.00    -0.165 F 
ENDBRANCH  16  33
ENDBRANCH  15  16
ENDBRANCH   9  15
ENDBRANCH   7   9
ENDBRANCH   1   6
TORSDOF 10
ENDMDL
MODEL 2
REMARK VINA RESULT:      -7.2      1.495      2.021
REMARK  10 active torsions:
REMARK  status: ('A' for Active; 'I' for Inactive)
REMARK    1  A    between atoms: C_2  and  C_4 
REMARK    2  A    between atoms: C_5  and  C_4 
REMARK    3  A    between atoms: C_5  and  C_6 
REMARK    4  A    between atoms: C_5  and  N_14 
REMARK       I    between atoms: C_6  and  N_8 
REMARK    5  A    between atoms: N_8  and  C_9 
REMARK    6  A    between atoms: C_15  and  N_14 
REMARK    7  A    between atoms: C_15  and  C_16 
REMARK    8  A    between atoms: C_15  and  C_32 
REMARK    9  A    between atoms: C_19  and  C_22 
REMARK   10  A    between atoms: C_25  and  S_28 
ROOT
ATOM      1  C   UNL d   1      64.764  90.686  95.178  0.00  0.00     0.166 A 
ATOM      2  C   UNL d   1      66.065  90.807  94.545  0.00  0.00     0.040 A 
ATOM      3  C   UNL d   1      65.644  89.527  95.169  0.00  0.00     0.040 A 
ATOM      4  C   UNL d   1      64.666  91.308  96.483  0.00  0.00     0.095 C 
ATOM      5  N   UNL d   1      64.710  91.738  97.567  0.00  0.00    -0.194 NA
ENDROOT
BRANCH   1   6
ATOM      6  N   UNL d   1      63.631  90.554  94.240  0.00  0.00    -0.222 NA
ATOM      7  C   UNL d   1      62.699  89.628  94.502  0.00  0.00     0.300 C 
ATOM      8  O   UNL d   1      62.548  89.000  95.546  0.00  0.00    -0.263 OA
BRANCH   7   9
ATOM      9  C   UNL d   1      61.767  89.434  93.300  0.00  0.00     0.171 C 
BRANCH   9  10
ATOM     10  C   UNL d   1      60.441  88.942  93.524  0.00  0.00    -0.074 C 
BRANCH  10  11
ATOM     11  C   UNL d   1      59.057  88.504  93.525  0.00  0.00     0.181 C 
ATOM     12  C   UNL d   1      58.801  87.088  94.145  0.00  0.00     0.048 C 
ATOM     13  C   UNL d   1      58.369  88.556  92.113  0.00  0.00     0.048 C 
ATOM     14  F   UNL d   1      58.315  89.362  94.290  0.00  0.00    -0.228 F 
ENDBRANCH  10  11
ENDBRANCH   9  10
BRANCH   9  15
ATOM     15  N   UNL d   1      62.301  89.368  92.055  0.00  0.00    -0.229 NA
BRANCH  15  16
ATOM     16  C   UNL d   1      62.747  88.140  91.674  0.00  0.00     0.153 C 
BRANCH  16  17
ATOM     17  C   UNL d   1      61.758  87.249  91.014  0.00  0.00     0.022 A 
ATOM     18  C   UNL d   1      61.196  87.578  89.780  0.00  0.00     0.001 A 
ATOM     19  C   UNL d   1      60.191  86.794  89.210  0.00  0.00     0.000 A 
ATOM     20  C   UNL d   1      59.715  85.643  89.847  0.00  0.00     0.000 A 
ATOM     21  C   UNL d   1      60.322  85.284  91.054  0.00  0.00     0.000 A 
ATOM     22  C   UNL d   1      61.324  86.069  91.625  0.00  0.00     0.001 A 
BRANCH  20  23
ATOM     23  C   UNL d   1      58.589  84.876  89.299  0.00  0.00     0.000 A 
ATOM     24  C   UNL d   1      58.195  83.655  89.866  0.00  0.00     0.001 A 
ATOM     25  C   UNL d   1      57.174  82.887  89.311  0.00  0.00     0.011 A 
ATOM     26  C   UNL d   1      56.533  83.345  88.169  0.00  0.00     0.084 A 
ATOM     27  C   UNL d   1      56.875  84.559  87.591  0.00  0.00     0.011 A 
ATOM     28  C   UNL d   1      57.900  85.313  88.158  0.00  0.00     0.001 A 
BRANCH  26  29
ATOM     29  S   UNL d   1      55.278  82.409  87.429  0.00  0.00     0.191 S 
ATOM     30  O   UNL d   1      55.775  81.148  86.930  0.00  0.00    -0.222 OA
ATOM     31  O   UNL d   1      54.306  83.244  86.759  0.00  0.00    -0.222 OA
ATOM     32  C   UNL d   1      54.200  81.779  88.697  0.00  0.00     0.145 C 
ENDBRANCH  26  29
ENDBRANCH  20  23
ENDBRANCH  16  17
BRANCH  16  33
ATOM     33  C   UNL d   1      64.209  87.889  91.388  0.00  0.00     0.435 C 
ATOM     34  F   UNL d   1      65.022  88.833  91.953  0.00  0.00    -0.165 F 
ATOM     35  F   UNL d   1      64.695  86.690  91.813  0.00  0.00    -0.165 F 
ATOM     36  F   UNL d   1      64.475  87.939  90.047  0.00  0.00    -0.165 F 
ENDBRANCH  16  33
ENDBRANCH  15  16
ENDBRANCH   9  15
ENDBRANCH   7   9
ENDBRANCH   1   6
TORSDOF 10
ENDMDL
MODEL 3
REMARK VINA RESULT:      -7.2     21.667     23.035
REMARK  10 active torsions:
REMARK  status: ('A' for Active; 'I' for Inactive)
REMARK    1  A    between atoms: C_2  and  C_4 
REMARK    2  A    between atoms: C_5  and  C_4 
REMARK    3  A    between atoms: C_5  and  C_6 
REMARK    4  A    between atoms: C_5  and  N_14 
REMARK       I    between atoms: C_6  and  N_8 
REMARK    5  A    between atoms: N_8  and  C_9 
REMARK    6  A    between atoms: C_15  and  N_14 
REMARK    7  A    between atoms: C_15  and  C_16 
REMARK    8  A    between atoms: C_15  and  C_32 
REMARK    9  A    between atoms: C_19  and  C_22 
REMARK   10  A    between atoms: C_25  and  S_28 
ROOT
ATOM      1  C   UNL d   1      79.310  71.012  92.486  0.00  0.00     0.166 A 
ATOM      2  C   UNL d   1      80.121  70.463  93.557  0.00  0.00     0.040 A 
ATOM      3  C   UNL d   1      78.720  70.888  93.811  0.00  0.00     0.040 A 
ATOM      4  C   UNL d   1      79.619  72.382  92.134  0.00  0.00     0.095 C 
ATOM      5  N   UNL d   1      79.860  73.515  91.992  0.00  0.00    -0.194 NA
ENDROOT
BRANCH   1   6
ATOM      6  N   UNL d   1      78.792  70.011  91.531  0.00  0.00    -0.222 NA
ATOM      7  C   UNL d   1      79.605  69.593  90.552  0.00  0.00     0.300 C 
ATOM      8  O   UNL d   1      80.815  69.779  90.460  0.00  0.00    -0.263 OA
BRANCH   7   9
ATOM      9  C   UNL d   1      78.829  68.788  89.501  0.00  0.00     0.171 C 
BRANCH   9  10
ATOM     10  C   UNL d   1      78.831  67.359  89.583  0.00  0.00    -0.074 C 
BRANCH  10  11
ATOM     11  C   UNL d   1      78.700  65.918  89.470  0.00  0.00     0.181 C 
ATOM     12  C   UNL d   1      80.041  65.135  89.258  0.00  0.00     0.048 C 
ATOM     13  C   UNL d   1      77.680  65.454  88.369  0.00  0.00     0.048 C 
ATOM     14  F   UNL d   1      78.184  65.421  90.636  0.00  0.00    -0.228 F 
ENDBRANCH  10  11
ENDBRANCH   9  10
BRANCH   9  15
ATOM     15  N   UNL d   1      78.478  69.390  88.338  0.00  0.00    -0.229 NA
BRANCH  15  16
ATOM     16  C   UNL d   1      77.142  69.576  88.155  0.00  0.00     0.153 C 
BRANCH  16  17
ATOM     17  C   UNL d   1      76.518  70.692  88.912  0.00  0.00     0.022 A 
ATOM     18  C   UNL d   1      75.488  70.463  89.825  0.00  0.00     0.001 A 
ATOM     19  C   UNL d   1      74.832  71.520  90.457  0.00  0.00     0.000 A 
ATOM     20  C   UNL d   1      75.187  72.851  90.210  0.00  0.00     0.000 A 
ATOM     21  C   UNL d   1      76.259  73.074  89.340  0.00  0.00     0.000 A 
ATOM     22  C   UNL d   1      76.912  72.018  88.706  0.00  0.00     0.001 A 
BRANCH  20  23
ATOM     23  C   UNL d   1      74.431  73.965  90.795  0.00  0.00     0.000 A 
ATOM     24  C   UNL d   1      73.126  73.786  91.277  0.00  0.00     0.001 A 
ATOM     25  C   UNL d   1      72.376  74.851  91.769  0.00  0.00     0.011 A 
ATOM     26  C   UNL d   1      72.937  76.120  91.781  0.00  0.00     0.084 A 
ATOM     27  C   UNL d   1      74.233  76.337  91.337  0.00  0.00     0.011 A 
ATOM     28  C   UNL d   1      74.968  75.260  90.846  0.00  0.00     0.001 A 
BRANCH  26  29
ATOM     29  S   UNL d   1      72.030  77.478  92.357  0.00  0.00     0.191 S 
ATOM     30  O   UNL d   1      71.445  77.220  93.652  0.00  0.00    -0.222 OA
ATOM     31  O   UNL d   1      71.384  78.192  91.279  0.00  0.00    -0.222 OA
ATOM     32  C   UNL d   1      73.160  78.767  92.837  0.00  0.00     0.145 C 
ENDBRANCH  26  29
ENDBRANCH  20  23
ENDBRANCH  16  17
BRANCH  16  33
ATOM     33  C   UNL d   1      76.450  69.119  86.893  0.00  0.00     0.435 C 
ATOM     34  F   UNL d   1      75.397  68.283  87.148  0.00  0.00    -0.165 F 
ATOM     35  F   UNL d   1      75.945  70.109  86.107  0.00  0.00    -0.165 F 
ATOM     36  F   UNL d   1      77.293  68.403  86.087  0.00  0.00    -0.165 F 
ENDBRANCH  16  33
ENDBRANCH  15  16
ENDBRANCH   9  15
ENDBRANCH   7   9
ENDBRANCH   1   6
TORSDOF 10
ENDMDL
MODEL 4
REMARK VINA RESULT:      -7.1      1.744      2.337
REMARK  10 active torsions:
REMARK  status: ('A' for Active; 'I' for Inactive)
REMARK    1  A    between atoms: C_2  and  C_4 
REMARK    2  A    between atoms: C_5  and  C_4 
REMARK    3  A    between atoms: C_5  and  C_6 
REMARK    4  A    between atoms: C_5  and  N_14 
REMARK       I    between atoms: C_6  and  N_8 
REMARK    5  A    between atoms: N_8  and  C_9 
REMARK    6  A    between atoms: C_15  and  N_14 
REMARK    7  A    between atoms: C_15  and  C_16 
REMARK    8  A    between atoms: C_15  and  C_32 
REMARK    9  A    between atoms: C_19  and  C_22 
REMARK   10  A    between atoms: C_25  and  S_28 
ROOT
ATOM      1  C   UNL d   1      65.372  90.095  95.690  0.00  0.00     0.166 A 
ATOM      2  C   UNL d   1      65.591  89.653  97.056  0.00  0.00     0.040 A 
ATOM      3  C   UNL d   1      64.548  90.666  96.746  0.00  0.00     0.040 A 
ATOM      4  C   UNL d   1      66.364  91.022  95.187  0.00  0.00     0.095 C 
ATOM      5  N   UNL d   1      67.143  91.845  94.905  0.00  0.00    -0.194 NA
ENDROOT
BRANCH   1   6
ATOM      6  N   UNL d   1      64.635  89.135  94.843  0.00  0.00    -0.222 NA
ATOM      7  C   UNL d   1      63.714  89.618  93.997  0.00  0.00     0.300 C 
ATOM      8  O   UNL d   1      63.540  90.789  93.677  0.00  0.00    -0.263 OA
BRANCH   7   9
ATOM      9  C   UNL d   1      62.859  88.485  93.414  0.00  0.00     0.171 C 
BRANCH   9  10
ATOM     10  C   UNL d   1      63.344  87.140  93.495  0.00  0.00    -0.074 C 
BRANCH  10  11
ATOM     11  C   UNL d   1      63.707  85.740  93.381  0.00  0.00     0.181 C 
ATOM     12  C   UNL d   1      62.532  84.721  93.577  0.00  0.00     0.048 C 
ATOM     13  C   UNL d   1      64.893  85.309  94.319  0.00  0.00     0.048 C 
ATOM     14  F   UNL d   1      64.174  85.498  92.119  0.00  0.00    -0.228 F 
ENDBRANCH  10  11
ENDBRANCH   9  10
BRANCH   9  15
ATOM     15  N   UNL d   1      61.877  88.788  92.530  0.00  0.00    -0.229 NA
BRANCH  15  16
ATOM     16  C   UNL d   1      62.105  88.398  91.247  0.00  0.00     0.153 C 
BRANCH  16  17
ATOM     17  C   UNL d   1      61.019  87.631  90.583  0.00  0.00     0.022 A 
ATOM     18  C   UNL d   1      59.690  87.753  90.991  0.00  0.00     0.001 A 
ATOM     19  C   UNL d   1      58.687  86.956  90.438  0.00  0.00     0.000 A 
ATOM     20  C   UNL d   1      58.969  86.012  89.445  0.00  0.00     0.000 A 
ATOM     21  C   UNL d   1      60.291  85.935  88.995  0.00  0.00     0.000 A 
ATOM     22  C   UNL d   1      61.294  86.728  89.551  0.00  0.00     0.001 A 
BRANCH  20  23
ATOM     23  C   UNL d   1      57.934  85.104  88.936  0.00  0.00     0.000 A 
ATOM     24  C   UNL d   1      57.628  83.906  89.598  0.00  0.00     0.001 A 
ATOM     25  C   UNL d   1      56.697  83.005  89.086  0.00  0.00     0.011 A 
ATOM     26  C   UNL d   1      56.060  83.304  87.891  0.00  0.00     0.084 A 
ATOM     27  C   UNL d   1      56.314  84.490  87.217  0.00  0.00     0.011 A 
ATOM     28  C   UNL d   1      57.250  85.377  87.743  0.00  0.00     0.001 A 
BRANCH  26  29
ATOM     29  S   UNL d   1      54.917  82.200  87.202  0.00  0.00     0.191 S 
ATOM     30  O   UNL d   1      55.545  80.963  86.799  0.00  0.00    -0.222 OA
ATOM     31  O   UNL d   1      53.880  82.886  86.465  0.00  0.00    -0.222 OA
ATOM     32  C   UNL d   1      53.882  81.553  88.499  0.00  0.00     0.145 C 
ENDBRANCH  26  29
ENDBRANCH  20  23
ENDBRANCH  16  17
BRANCH  16  33
ATOM     33  C   UNL d   1      63.073  89.144  90.358  0.00  0.00     0.435 C 
ATOM     34  F   UNL d   1      62.606  89.283  89.079  0.00  0.00    -0.165 F 
ATOM     35  F   UNL d   1      63.396  90.402  90.765  0.00  0.00    -0.165 F 
ATOM     36  F   UNL d   1      64.262  88.479  90.238  0.00  0.00    -0.165 F 
ENDBRANCH  16  33
ENDBRANCH  15  16
ENDBRANCH   9  15
ENDBRANCH   7   9
ENDBRANCH   1   6
TORSDOF 10
ENDMDL
MODEL 5
REMARK VINA RESULT:      -7.0     22.160     23.617
REMARK  10 active torsions:
REMARK  status: ('A' for Active; 'I' for Inactive)
REMARK    1  A    between atoms: C_2  and  C_4 
REMARK    2  A    between atoms: C_5  and  C_4 
REMARK    3  A    between atoms: C_5  and  C_6 
REMARK    4  A    between atoms: C_5  and  N_14 
REMARK       I    between atoms: C_6  and  N_8 
REMARK    5  A    between atoms: N_8  and  C_9 
REMARK    6  A    between atoms: C_15  and  N_14 
REMARK    7  A    between atoms: C_15  and  C_16 
REMARK    8  A    between atoms: C_15  and  C_32 
REMARK    9  A    between atoms: C_19  and  C_22 
REMARK   10  A    between atoms: C_25  and  S_28 
ROOT
ATOM      1  C   UNL d   1      78.306  65.951  92.434  0.00  0.00     0.166 A 
ATOM      2  C   UNL d   1      77.929  66.093  93.829  0.00  0.00     0.040 A 
ATOM      3  C   UNL d   1      79.358  65.969  93.440  0.00  0.00     0.040 A 
ATOM      4  C   UNL d   1      78.081  64.632  91.879  0.00  0.00     0.095 C 
ATOM      5  N   UNL d   1      77.970  63.519  91.548  0.00  0.00    -0.194 NA
ENDROOT
BRANCH   1   6
ATOM      6  N   UNL d   1      78.241  67.199  91.648  0.00  0.00    -0.222 NA
ATOM      7  C   UNL d   1      79.057  67.323  90.592  0.00  0.00     0.300 C 
ATOM      8  O   UNL d   1      79.719  66.439  90.056  0.00  0.00    -0.263 OA
BRANCH   7   9
ATOM      9  C   UNL d   1      79.065  68.766  90.072  0.00  0.00     0.171 C 
BRANCH   9  10
ATOM     10  C   UNL d   1      79.044  69.842  91.016  0.00  0.00    -0.074 C 
BRANCH  10  11
ATOM     11  C   UNL d   1      78.809  70.851  92.032  0.00  0.00     0.181 C 
ATOM     12  C   UNL d   1      78.840  72.335  91.528  0.00  0.00     0.048 C 
ATOM     13  C   UNL d   1      79.758  70.736  93.280  0.00  0.00     0.048 C 
ATOM     14  F   UNL d   1      77.554  70.683  92.551  0.00  0.00    -0.228 F 
ENDBRANCH  10  11
ENDBRANCH   9  10
BRANCH   9  15
ATOM     15  N   UNL d   1      78.723  69.004  88.782  0.00  0.00    -0.229 NA
BRANCH  15  16
ATOM     16  C   UNL d   1      77.390  68.958  88.512  0.00  0.00     0.153 C 
BRANCH  16  17
ATOM     17  C   UNL d   1      76.579  70.114  88.973  0.00  0.00     0.022 A 
ATOM     18  C   UNL d   1      76.798  71.399  88.475  0.00  0.00     0.001 A 
ATOM     19  C   UNL d   1      76.107  72.500  88.983  0.00  0.00     0.000 A 
ATOM     20  C   UNL d   1      75.160  72.360  90.004  0.00  0.00     0.000 A 
ATOM     21  C   UNL d   1      74.900  71.064  90.459  0.00  0.00     0.000 A 
ATOM     22  C   UNL d   1      75.592  69.964  89.953  0.00  0.00     0.001 A 
BRANCH  20  23
ATOM     23  C   UNL d   1      74.509  73.529  90.609  0.00  0.00     0.000 A 
ATOM     24  C   UNL d   1      73.283  73.412  91.280  0.00  0.00     0.001 A 
ATOM     25  C   UNL d   1      72.624  74.526  91.797  0.00  0.00     0.011 A 
ATOM     26  C   UNL d   1      73.198  75.779  91.640  0.00  0.00     0.084 A 
ATOM     27  C   UNL d   1      74.422  75.935  91.004  0.00  0.00     0.011 A 
ATOM     28  C   UNL d   1      75.065  74.811  90.492  0.00  0.00     0.001 A 
BRANCH  26  29
ATOM     29  S   UNL d   1      72.400  77.194  92.240  0.00  0.00     0.191 S 
ATOM     30  O   UNL d   1      73.159  78.392  91.966  0.00  0.00    -0.222 OA
ATOM     31  O   UNL d   1      71.677  76.928  93.462  0.00  0.00    -0.222 OA
ATOM     32  C   UNL d   1      70.989  77.543  91.213  0.00  0.00     0.145 C 
ENDBRANCH  26  29
ENDBRANCH  20  23
ENDBRANCH  16  17
BRANCH  16  33
ATOM     33  C   UNL d   1      76.849  68.143  87.361  0.00  0.00     0.435 C 
ATOM     34  F   UNL d   1      77.543  68.354  86.200  0.00  0.00    -0.165 F 
ATOM     35  F   UNL d   1      76.847  66.794  87.543  0.00  0.00    -0.165 F 
ATOM     36  F   UNL d   1      75.553  68.477  87.073  0.00  0.00    -0.165 F 
ENDBRANCH  16  33
ENDBRANCH  15  16
ENDBRANCH   9  15
ENDBRANCH   7   9
ENDBRANCH   1   6
TORSDOF 10
ENDMDL
MODEL 6
REMARK VINA RESULT:      -7.0      2.080      4.021
REMARK  10 active torsions:
REMARK  status: ('A' for Active; 'I' for Inactive)
REMARK    1  A    between atoms: C_2  and  C_4 
REMARK    2  A    between atoms: C_5  and  C_4 
REMARK    3  A    between atoms: C_5  and  C_6 
REMARK    4  A    between atoms: C_5  and  N_14 
REMARK       I    between atoms: C_6  and  N_8 
REMARK    5  A    between atoms: N_8  and  C_9 
REMARK    6  A    between atoms: C_15  and  N_14 
REMARK    7  A    between atoms: C_15  and  C_16 
REMARK    8  A    between atoms: C_15  and  C_32 
REMARK    9  A    between atoms: C_19  and  C_22 
REMARK   10  A    between atoms: C_25  and  S_28 
ROOT
ATOM      1  C   UNL d   1      59.907  86.180  95.088  0.00  0.00     0.166 A 
ATOM      2  C   UNL d   1      59.168  85.294  94.207  0.00  0.00     0.040 A 
ATOM      3  C   UNL d   1      58.581  86.586  94.646  0.00  0.00     0.040 A 
ATOM      4  C   UNL d   1      59.936  85.767  96.476  0.00  0.00     0.095 C 
ATOM      5  N   UNL d   1      59.815  85.419  97.583  0.00  0.00    -0.194 NA
ENDROOT
BRANCH   1   6
ATOM      6  N   UNL d   1      60.990  86.940  94.430  0.00  0.00    -0.222 NA
ATOM      7  C   UNL d   1      61.157  88.225  94.773  0.00  0.00     0.300 C 
ATOM      8  O   UNL d   1      60.654  88.811  95.727  0.00  0.00    -0.263 OA
BRANCH   7   9
ATOM      9  C   UNL d   1      62.117  88.930  93.806  0.00  0.00     0.171 C 
BRANCH   9  10
ATOM     10  C   UNL d   1      63.314  89.518  94.325  0.00  0.00    -0.074 C 
BRANCH  10  11
ATOM     11  C   UNL d   1      64.632  90.025  94.658  0.00  0.00     0.181 C 
ATOM     12  C   UNL d   1      65.832  89.269  93.991  0.00  0.00     0.048 C 
ATOM     13  C   UNL d   1      64.908  90.121  96.202  0.00  0.00     0.048 C 
ATOM     14  F   UNL d   1      64.742  91.316  94.218  0.00  0.00    -0.228 F 
ENDBRANCH  10  11
ENDBRANCH   9  10
BRANCH   9  15
ATOM     15  N   UNL d   1      61.663  89.306  92.585  0.00  0.00    -0.229 NA
BRANCH  15  16
ATOM     16  C   UNL d   1      62.049  88.513  91.548  0.00  0.00     0.153 C 
BRANCH  16  17
ATOM     17  C   UNL d   1      61.048  87.534  91.052  0.00  0.00     0.022 A 
ATOM     18  C   UNL d   1      61.430  86.268  90.606  0.00  0.00     0.001 A 
ATOM     19  C   UNL d   1      60.504  85.388  90.044  0.00  0.00     0.000 A 
ATOM     20  C   UNL d   1      59.154  85.733  89.916  0.00  0.00     0.000 A 
ATOM     21  C   UNL d   1      58.764  86.978  90.419  0.00  0.00     0.000 A 
ATOM     22  C   UNL d   1      59.690  87.859  90.977  0.00  0.00     0.001 A 
BRANCH  20  23
ATOM     23  C   UNL d   1      58.200  84.851  89.232  0.00  0.00     0.000 A 
ATOM     24  C   UNL d   1      57.588  85.233  88.030  0.00  0.00     0.001 A 
ATOM     25  C   UNL d   1      56.630  84.433  87.412  0.00  0.00     0.011 A 
ATOM     26  C   UNL d   1      56.276  83.229  88.003  0.00  0.00     0.084 A 
ATOM     27  C   UNL d   1      56.876  82.802  89.179  0.00  0.00     0.011 A 
ATOM     28  C   UNL d   1      57.830  83.616  89.785  0.00  0.00     0.001 A 
BRANCH  26  29
ATOM     29  S   UNL d   1      55.069  82.216  87.285  0.00  0.00     0.191 S 
ATOM     30  O   UNL d   1      55.626  80.966  86.823  0.00  0.00    -0.222 OA
ATOM     31  O   UNL d   1      54.062  82.986  86.589  0.00  0.00    -0.222 OA
ATOM     32  C   UNL d   1      54.015  81.572  88.567  0.00  0.00     0.145 C 
ENDBRANCH  26  29
ENDBRANCH  20  23
ENDBRANCH  16  17
BRANCH  16  33
ATOM     33  C   UNL d   1      63.132  88.947  90.588  0.00  0.00     0.435 C 
ATOM     34  F   UNL d   1      64.242  88.149  90.658  0.00  0.00    -0.165 F 
ATOM     35  F   UNL d   1      62.781  88.965  89.273  0.00  0.00    -0.165 F 
ATOM     36  F   UNL d   1      63.577  90.210  90.867  0.00  0.00    -0.165 F 
ENDBRANCH  16  33
ENDBRANCH  15  16
ENDBRANCH   9  15
ENDBRANCH   7   9
ENDBRANCH   1   6
TORSDOF 10
ENDMDL
MODEL 7
REMARK VINA RESULT:      -6.9      1.109      1.568
REMARK  10 active torsions:
REMARK  status: ('A' for Active; 'I' for Inactive)
REMARK    1  A    between atoms: C_2  and  C_4 
REMARK    2  A    between atoms: C_5  and  C_4 
REMARK    3  A    between atoms: C_5  and  C_6 
REMARK    4  A    between atoms: C_5  and  N_14 
REMARK       I    between atoms: C_6  and  N_8 
REMARK    5  A    between atoms: N_8  and  C_9 
REMARK    6  A    between atoms: C_15  and  N_14 
REMARK    7  A    between atoms: C_15  and  C_16 
REMARK    8  A    between atoms: C_15  and  C_32 
REMARK    9  A    between atoms: C_19  and  C_22 
REMARK   10  A    between atoms: C_25  and  S_28 
ROOT
ATOM      1  C   UNL d   1      65.035  90.232  95.967  0.00  0.00     0.166 A 
ATOM      2  C   UNL d   1      66.355  90.289  95.365  0.00  0.00     0.040 A 
ATOM      3  C   UNL d   1      66.069  89.343  96.475  0.00  0.00     0.040 A 
ATOM      4  C   UNL d   1      64.736  91.322  96.873  0.00  0.00     0.095 C 
ATOM      5  N   UNL d   1      64.623  92.172  97.665  0.00  0.00    -0.194 NA
ENDROOT
BRANCH   1   6
ATOM      6  N   UNL d   1      64.018  89.529  95.159  0.00  0.00    -0.222 NA
ATOM      7  C   UNL d   1      63.335  90.237  94.250  0.00  0.00     0.300 C 
ATOM      8  O   UNL d   1      63.586  91.369  93.846  0.00  0.00    -0.263 OA
BRANCH   7   9
ATOM      9  C   UNL d   1      62.144  89.433  93.712  0.00  0.00     0.171 C 
BRANCH   9  10
ATOM     10  C   UNL d   1      61.618  88.362  94.503  0.00  0.00    -0.074 C 
BRANCH  10  11
ATOM     11  C   UNL d   1      61.013  87.185  95.099  0.00  0.00     0.181 C 
ATOM     12  C   UNL d   1      61.921  85.908  95.136  0.00  0.00     0.048 C 
ATOM     13  C   UNL d   1      59.631  86.787  94.466  0.00  0.00     0.048 C 
ATOM     14  F   UNL d   1      60.719  87.444  96.409  0.00  0.00    -0.228 F 
ENDBRANCH  10  11
ENDBRANCH   9  10
BRANCH   9  15
ATOM     15  N   UNL d   1      61.853  89.491  92.389  0.00  0.00    -0.229 NA
BRANCH  15  16
ATOM     16  C   UNL d   1      62.424  88.522  91.623  0.00  0.00     0.153 C 
BRANCH  16  17
ATOM     17  C   UNL d   1      61.521  87.451  91.125  0.00  0.00     0.022 A 
ATOM     18  C   UNL d   1      60.408  87.748  90.337  0.00  0.00     0.001 A 
ATOM     19  C   UNL d   1      59.504  86.755  89.957  0.00  0.00     0.000 A 
ATOM     20  C   UNL d   1      59.682  85.421  90.340  0.00  0.00     0.000 A 
ATOM     21  C   UNL d   1      60.829  85.117  91.079  0.00  0.00     0.000 A 
ATOM     22  C   UNL d   1      61.731  86.110  91.461  0.00  0.00     0.001 A 
BRANCH  20  23
ATOM     23  C   UNL d   1      58.678  84.396  90.028  0.00  0.00     0.000 A 
ATOM     24  C   UNL d   1      58.997  83.031  90.068  0.00  0.00     0.001 A 
ATOM     25  C   UNL d   1      58.072  82.054  89.707  0.00  0.00     0.011 A 
ATOM     26  C   UNL d   1      56.806  82.445  89.296  0.00  0.00     0.084 A 
ATOM     27  C   UNL d   1      56.442  83.784  89.266  0.00  0.00     0.011 A 
ATOM     28  C   UNL d   1      57.380  84.747  89.629  0.00  0.00     0.001 A 
BRANCH  26  29
ATOM     29  S   UNL d   1      55.634  81.267  88.809  0.00  0.00     0.191 S 
ATOM     30  O   UNL d   1      54.328  81.557  89.353  0.00  0.00    -0.222 OA
ATOM     31  O   UNL d   1      56.212  79.948  88.691  0.00  0.00    -0.222 OA
ATOM     32  C   UNL d   1      55.255  81.504  87.086  0.00  0.00     0.145 C 
ENDBRANCH  26  29
ENDBRANCH  20  23
ENDBRANCH  16  17
BRANCH  16  33
ATOM     33  C   UNL d   1      63.691  88.781  90.843  0.00  0.00     0.435 C 
ATOM     34  F   UNL d   1      63.815  90.091  90.468  0.00  0.00    -0.165 F 
ATOM     35  F   UNL d   1      64.851  88.476  91.487  0.00  0.00    -0.165 F 
ATOM     36  F   UNL d   1      63.720  88.067  89.676  0.00  0.00    -0.165 F 
ENDBRANCH  16  33
ENDBRANCH  15  16
ENDBRANCH   9  15
ENDBRANCH   7   9
ENDBRANCH   1   6
TORSDOF 10
ENDMDL
MODEL 8
REMARK VINA RESULT:      -6.7     20.638     22.706
REMARK  10 active torsions:
REMARK  status: ('A' for Active; 'I' for Inactive)
REMARK    1  A    between atoms: C_2  and  C_4 
REMARK    2  A    between atoms: C_5  and  C_4 
REMARK    3  A    between atoms: C_5  and  C_6 
REMARK    4  A    between atoms: C_5  and  N_14 
REMARK       I    between atoms: C_6  and  N_8 
REMARK    5  A    between atoms: N_8  and  C_9 
REMARK    6  A    between atoms: C_15  and  N_14 
REMARK    7  A    between atoms: C_15  and  C_16 
REMARK    8  A    between atoms: C_15  and  C_32 
REMARK    9  A    between atoms: C_19  and  C_22 
REMARK   10  A    between atoms: C_25  and  S_28 
ROOT
ATOM      1  C   UNL d   1      80.234  80.809  97.552  0.00  0.00     0.166 A 
ATOM      2  C   UNL d   1      79.336  81.735  96.887  0.00  0.00     0.040 A 
ATOM      3  C   UNL d   1      80.134  82.168  98.063  0.00  0.00     0.040 A 
ATOM      4  C   UNL d   1      79.580  79.838  98.404  0.00  0.00     0.095 C 
ATOM      5  N   UNL d   1      78.981  79.168  99.148  0.00  0.00    -0.194 NA
ENDROOT
BRANCH   1   6
ATOM      6  N   UNL d   1      81.501  80.557  96.835  0.00  0.00    -0.222 NA
ATOM      7  C   UNL d   1      81.482  79.707  95.800  0.00  0.00     0.300 C 
ATOM      8  O   UNL d   1      80.495  79.256  95.226  0.00  0.00    -0.263 OA
BRANCH   7   9
ATOM      9  C   UNL d   1      82.907  79.346  95.361  0.00  0.00     0.171 C 
BRANCH   9  10
ATOM     10  C   UNL d   1      84.008  80.064  95.927  0.00  0.00    -0.074 C 
BRANCH  10  11
ATOM     11  C   UNL d   1      85.203  80.809  96.279  0.00  0.00     0.181 C 
ATOM     12  C   UNL d   1      84.954  82.178  97.000  0.00  0.00     0.048 C 
ATOM     13  C   UNL d   1      86.178  81.059  95.072  0.00  0.00     0.048 C 
ATOM     14  F   UNL d   1      85.946  80.076  97.163  0.00  0.00    -0.228 F 
ENDBRANCH  10  11
ENDBRANCH   9  10
BRANCH   9  15
ATOM     15  N   UNL d   1      83.086  78.646  94.213  0.00  0.00    -0.229 NA
BRANCH  15  16
ATOM     16  C   UNL d   1      83.290  77.310  94.369  0.00  0.00     0.153 C 
BRANCH  16  17
ATOM     17  C   UNL d   1      82.382  76.407  93.617  0.00  0.00     0.022 A 
ATOM     18  C   UNL d   1      82.108  76.614  92.264  0.00  0.00     0.001 A 
ATOM     19  C   UNL d   1      81.176  75.829  91.585  0.00  0.00     0.000 A 
ATOM     20  C   UNL d   1      80.485  74.796  92.228  0.00  0.00     0.000 A 
ATOM     21  C   UNL d   1      80.806  74.551  93.567  0.00  0.00     0.000 A 
ATOM     22  C   UNL d   1      81.735  75.338  94.247  0.00  0.00     0.001 A 
BRANCH  20  23
ATOM     23  C   UNL d   1      79.432  74.037  91.542  0.00  0.00     0.000 A 
ATOM     24  C   UNL d   1      78.499  74.676  90.712  0.00  0.00     0.001 A 
ATOM     25  C   UNL d   1      77.454  73.976  90.113  0.00  0.00     0.011 A 
ATOM     26  C   UNL d   1      77.336  72.613  90.348  0.00  0.00     0.084 A 
ATOM     27  C   UNL d   1      78.252  71.939  91.142  0.00  0.00     0.011 A 
ATOM     28  C   UNL d   1      79.289  72.655  91.734  0.00  0.00     0.001 A 
BRANCH  26  29
ATOM     29  S   UNL d   1      76.036  71.709  89.648  0.00  0.00     0.191 S 
ATOM     30  O   UNL d   1      76.243  71.481  88.237  0.00  0.00    -0.222 OA
ATOM     31  O   UNL d   1      74.767  72.025  90.262  0.00  0.00    -0.222 OA
ATOM     32  C   UNL d   1      76.141  70.020  90.201  0.00  0.00     0.145 C 
ENDBRANCH  26  29
ENDBRANCH  20  23
ENDBRANCH  16  17
BRANCH  16  33
ATOM     33  C   UNL d   1      84.640  76.763  94.769  0.00  0.00     0.435 C 
ATOM     34  F   UNL d   1      84.753  76.586  96.121  0.00  0.00    -0.165 F 
ATOM     35  F   UNL d   1      84.977  75.564  94.217  0.00  0.00    -0.165 F 
ATOM     36  F   UNL d   1      85.652  77.620  94.431  0.00  0.00    -0.165 F 
ENDBRANCH  16  33
ENDBRANCH  15  16
ENDBRANCH   9  15
ENDBRANCH   7   9
ENDBRANCH   1   6
TORSDOF 10
ENDMDL
MODEL 9
REMARK VINA RESULT:      -6.4      7.880     10.989
REMARK  10 active torsions:
REMARK  status: ('A' for Active; 'I' for Inactive)
REMARK    1  A    between atoms: C_2  and  C_4 
REMARK    2  A    between atoms: C_5  and  C_4 
REMARK    3  A    between atoms: C_5  and  C_6 
REMARK    4  A    between atoms: C_5  and  N_14 
REMARK       I    between atoms: C_6  and  N_8 
REMARK    5  A    between atoms: N_8  and  C_9 
REMARK    6  A    between atoms: C_15  and  N_14 
REMARK    7  A    between atoms: C_15  and  C_16 
REMARK    8  A    between atoms: C_15  and  C_32 
REMARK    9  A    between atoms: C_19  and  C_22 
REMARK   10  A    between atoms: C_25  and  S_28 
ROOT
ATOM      1  C   UNL d   1      68.966  86.548  97.637  0.00  0.00     0.166 A 
ATOM      2  C   UNL d   1      69.439  85.178  97.732  0.00  0.00     0.040 A 
ATOM      3  C   UNL d   1      68.247  85.622  98.500  0.00  0.00     0.040 A 
ATOM      4  C   UNL d   1      69.753  87.512  98.378  0.00  0.00     0.095 C 
ATOM      5  N   UNL d   1      70.377  88.198  99.088  0.00  0.00    -0.194 NA
ENDROOT
BRANCH   1   6
ATOM      6  N   UNL d   1      68.233  86.862  96.395  0.00  0.00    -0.222 NA
ATOM      7  C   UNL d   1      67.238  87.757  96.458  0.00  0.00     0.300 C 
ATOM      8  O   UNL d   1      66.982  88.519  97.385  0.00  0.00    -0.263 OA
BRANCH   7   9
ATOM      9  C   UNL d   1      66.412  87.751  95.165  0.00  0.00     0.171 C 
BRANCH   9  10
ATOM     10  C   UNL d   1      65.608  88.893  94.851  0.00  0.00    -0.074 C 
BRANCH  10  11
ATOM     11  C   UNL d   1      64.863  90.133  94.744  0.00  0.00     0.181 C 
ATOM     12  C   UNL d   1      65.503  91.225  93.820  0.00  0.00     0.048 C 
ATOM     13  C   UNL d   1      64.523  90.796  96.128  0.00  0.00     0.048 C 
ATOM     14  F   UNL d   1      63.640  89.876  94.188  0.00  0.00    -0.228 F 
ENDBRANCH  10  11
ENDBRANCH   9  10
BRANCH   9  15
ATOM     15  N   UNL d   1      66.162  86.569  94.549  0.00  0.00    -0.229 NA
BRANCH  15  16
ATOM     16  C   UNL d   1      66.574  86.486  93.255  0.00  0.00     0.153 C 
BRANCH  16  17
ATOM     17  C   UNL d   1      67.847  85.760  93.009  0.00  0.00     0.022 A 
ATOM     18  C   UNL d   1      67.984  84.407  93.322  0.00  0.00     0.001 A 
ATOM     19  C   UNL d   1      69.210  83.754  93.187  0.00  0.00     0.000 A 
ATOM     20  C   UNL d   1      70.347  84.424  92.723  0.00  0.00     0.000 A 
ATOM     21  C   UNL d   1      70.192  85.763  92.354  0.00  0.00     0.000 A 
ATOM     22  C   UNL d   1      68.968  86.417  92.491  0.00  0.00     0.001 A 
BRANCH  20  23
ATOM     23  C   UNL d   1      71.659  83.765  92.679  0.00  0.00     0.000 A 
ATOM     24  C   UNL d   1      72.625  84.000  93.668  0.00  0.00     0.001 A 
ATOM     25  C   UNL d   1      73.896  83.434  93.598  0.00  0.00     0.011 A 
ATOM     26  C   UNL d   1      74.210  82.618  92.520  0.00  0.00     0.084 A 
ATOM     27  C   UNL d   1      73.275  82.340  91.533  0.00  0.00     0.011 A 
ATOM     28  C   UNL d   1      72.010  82.916  91.619  0.00  0.00     0.001 A 
BRANCH  26  29
ATOM     29  S   UNL d   1      75.786  81.917  92.376  0.00  0.00     0.191 S 
ATOM     30  O   UNL d   1      76.514  82.465  91.255  0.00  0.00    -0.222 OA
ATOM     31  O   UNL d   1      75.798  80.529  92.778  0.00  0.00    -0.222 OA
ATOM     32  C   UNL d   1      76.819  82.541  93.685  0.00  0.00     0.145 C 
ENDBRANCH  26  29
ENDBRANCH  20  23
ENDBRANCH  16  17
BRANCH  16  33
ATOM     33  C   UNL d   1      65.592  86.576  92.110  0.00  0.00     0.435 C 
ATOM     34  F   UNL d   1      65.249  87.867  91.817  0.00  0.00    -0.165 F 
ATOM     35  F   UNL d   1      66.010  86.035  90.933  0.00  0.00    -0.165 F 
ATOM     36  F   UNL d   1      64.414  85.946  92.406  0.00  0.00    -0.165 F 
ENDBRANCH  16  33
ENDBRANCH  15  16
ENDBRANCH   9  15
ENDBRANCH   7   9
ENDBRANCH   1   6
TORSDOF 10
ENDMDL
MODEL 10
REMARK VINA RESULT:      -6.4      2.592      3.694
REMARK  10 active torsions:
REMARK  status: ('A' for Active; 'I' for Inactive)
REMARK    1  A    between atoms: C_2  and  C_4 
REMARK    2  A    between atoms: C_5  and  C_4 
REMARK    3  A    between atoms: C_5  and  C_6 
REMARK    4  A    between atoms: C_5  and  N_14 
REMARK       I    between atoms: C_6  and  N_8 
REMARK    5  A    between atoms: N_8  and  C_9 
REMARK    6  A    between atoms: C_15  and  N_14 
REMARK    7  A    between atoms: C_15  and  C_16 
REMARK    8  A    between atoms: C_15  and  C_32 
REMARK    9  A    between atoms: C_19  and  C_22 
REMARK   10  A    between atoms: C_25  and  S_28 
ROOT
ATOM      1  C   UNL d   1      67.019  86.143  93.212  0.00  0.00     0.166 A 
ATOM      2  C   UNL d   1      68.145  86.558  92.395  0.00  0.00     0.040 A 
ATOM      3  C   UNL d   1      67.131  85.613  91.861  0.00  0.00     0.040 A 
ATOM      4  C   UNL d   1      67.338  85.163  94.229  0.00  0.00     0.095 C 
ATOM      5  N   UNL d   1      67.661  84.299  94.944  0.00  0.00    -0.194 NA
ENDROOT
BRANCH   1   6
ATOM      6  N   UNL d   1      65.949  87.153  93.345  0.00  0.00    -0.222 NA
ATOM      7  C   UNL d   1      64.677  86.738  93.269  0.00  0.00     0.300 C 
ATOM      8  O   UNL d   1      64.268  85.581  93.309  0.00  0.00    -0.263 OA
BRANCH   7   9
ATOM      9  C   UNL d   1      63.719  87.930  93.140  0.00  0.00     0.171 C 
BRANCH   9  10
ATOM     10  C   UNL d   1      63.994  89.122  93.883  0.00  0.00    -0.074 C 
BRANCH  10  11
ATOM     11  C   UNL d   1      64.296  90.434  94.425  0.00  0.00     0.181 C 
ATOM     12  C   UNL d   1      63.085  91.190  95.072  0.00  0.00     0.048 C 
ATOM     13  C   UNL d   1      64.991  91.403  93.401  0.00  0.00     0.048 C 
ATOM     14  F   UNL d   1      65.210  90.304  95.435  0.00  0.00    -0.228 F 
ENDBRANCH  10  11
ENDBRANCH   9  10
BRANCH   9  15
ATOM     15  N   UNL d   1      62.474  87.723  92.645  0.00  0.00    -0.229 NA
BRANCH  15  16
ATOM     16  C   UNL d   1      62.415  87.401  91.325  0.00  0.00     0.153 C 
BRANCH  16  17
ATOM     17  C   UNL d   1      61.240  86.603  90.887  0.00  0.00     0.022 A 
ATOM     18  C   UNL d   1      61.328  85.222  90.704  0.00  0.00     0.001 A 
ATOM     19  C   UNL d   1      60.255  84.490  90.194  0.00  0.00     0.000 A 
ATOM     20  C   UNL d   1      59.045  85.107  89.857  0.00  0.00     0.000 A 
ATOM     21  C   UNL d   1      58.940  86.480  90.098  0.00  0.00     0.000 A 
ATOM     22  C   UNL d   1      60.014  87.212  90.605  0.00  0.00     0.001 A 
BRANCH  20  23
ATOM     23  C   UNL d   1      57.953  84.355  89.225  0.00  0.00     0.000 A 
ATOM     24  C   UNL d   1      57.541  83.112  89.726  0.00  0.00     0.001 A 
ATOM     25  C   UNL d   1      56.554  82.360  89.093  0.00  0.00     0.011 A 
ATOM     26  C   UNL d   1      55.967  82.857  87.938  0.00  0.00     0.084 A 
ATOM     27  C   UNL d   1      56.328  84.094  87.423  0.00  0.00     0.011 A 
ATOM     28  C   UNL d   1      57.319  84.831  88.068  0.00  0.00     0.001 A 
BRANCH  26  29
ATOM     29  S   UNL d   1      54.757  81.943  87.102  0.00  0.00     0.191 S 
ATOM     30  O   UNL d   1      55.200  80.596  86.827  0.00  0.00    -0.222 OA
ATOM     31  O   UNL d   1      53.987  82.767  86.198  0.00  0.00    -0.222 OA
ATOM     32  C   UNL d   1      53.439  81.555  88.234  0.00  0.00     0.145 C 
ENDBRANCH  26  29
ENDBRANCH  20  23
ENDBRANCH  16  17
BRANCH  16  33
ATOM     33  C   UNL d   1      63.116  88.236  90.279  0.00  0.00     0.435 C 
ATOM     34  F   UNL d   1      64.415  87.849  90.087  0.00  0.00    -0.165 F 
ATOM     35  F   UNL d   1      62.549  88.229  89.042  0.00  0.00    -0.165 F 
ATOM     36  F   UNL d   1      63.182  89.552  90.647  0.00  0.00    -0.165 F 
ENDBRANCH  16  33
ENDBRANCH  15  16
ENDBRANCH   9  15
ENDBRANCH   7   9
ENDBRANCH   1   6
TORSDOF 10
ENDMDL
MODEL 11
REMARK VINA RESULT:      -6.3      2.063      3.636
REMARK  10 active torsions:
REMARK  status: ('A' for Active; 'I' for Inactive)
REMARK    1  A    between atoms: C_2  and  C_4 
REMARK    2  A    between atoms: C_5  and  C_4 
REMARK    3  A    between atoms: C_5  and  C_6 
REMARK    4  A    between atoms: C_5  and  N_14 
REMARK       I    between atoms: C_6  and  N_8 
REMARK    5  A    between atoms: N_8  and  C_9 
REMARK    6  A    between atoms: C_15  and  N_14 
REMARK    7  A    between atoms: C_15  and  C_16 
REMARK    8  A    between atoms: C_15  and  C_32 
REMARK    9  A    between atoms: C_19  and  C_22 
REMARK   10  A    between atoms: C_25  and  S_28 
ROOT
ATOM      1  C   UNL d   1      62.457  86.195  96.770  0.00  0.00     0.166 A 
ATOM      2  C   UNL d   1      63.507  85.243  97.081  0.00  0.00     0.040 A 
ATOM      3  C   UNL d   1      62.391  84.869  96.174  0.00  0.00     0.040 A 
ATOM      4  C   UNL d   1      61.483  86.387  97.824  0.00  0.00     0.095 C 
ATOM      5  N   UNL d   1      60.689  86.397  98.680  0.00  0.00    -0.194 NA
ENDROOT
BRANCH   1   6
ATOM      6  N   UNL d   1      62.840  87.242  95.800  0.00  0.00    -0.222 NA
ATOM      7  C   UNL d   1      61.943  87.601  94.872  0.00  0.00     0.300 C 
ATOM      8  O   UNL d   1      60.749  87.320  94.844  0.00  0.00    -0.263 OA
BRANCH   7   9
ATOM      9  C   UNL d   1      62.594  88.473  93.791  0.00  0.00     0.171 C 
BRANCH   9  10
ATOM     10  C   UNL d   1      63.785  89.200  94.111  0.00  0.00    -0.074 C 
BRANCH  10  11
ATOM     11  C   UNL d   1      64.961  90.042  94.227  0.00  0.00     0.181 C 
ATOM     12  C   UNL d   1      65.367  90.433  95.690  0.00  0.00     0.048 C 
ATOM     13  C   UNL d   1      64.892  91.357  93.368  0.00  0.00     0.048 C 
ATOM     14  F   UNL d   1      66.045  89.374  93.728  0.00  0.00    -0.228 F 
ENDBRANCH  10  11
ENDBRANCH   9  10
BRANCH   9  15
ATOM     15  N   UNL d   1      61.863  88.835  92.708  0.00  0.00    -0.229 NA
BRANCH  15  16
ATOM     16  C   UNL d   1      62.233  88.258  91.533  0.00  0.00     0.153 C 
BRANCH  16  17
ATOM     17  C   UNL d   1      61.234  87.369  90.886  0.00  0.00     0.022 A 
ATOM     18  C   UNL d   1      59.982  87.847  90.494  0.00  0.00     0.001 A 
ATOM     19  C   UNL d   1      59.007  86.989  89.982  0.00  0.00     0.000 A 
ATOM     20  C   UNL d   1      59.247  85.619  89.831  0.00  0.00     0.000 A 
ATOM     21  C   UNL d   1      60.522  85.154  90.167  0.00  0.00     0.000 A 
ATOM     22  C   UNL d   1      61.495  86.010  90.682  0.00  0.00     0.001 A 
BRANCH  20  23
ATOM     23  C   UNL d   1      58.189  84.702  89.390  0.00  0.00     0.000 A 
ATOM     24  C   UNL d   1      57.912  83.519  90.091  0.00  0.00     0.001 A 
ATOM     25  C   UNL d   1      56.959  82.609  89.642  0.00  0.00     0.011 A 
ATOM     26  C   UNL d   1      56.268  82.882  88.470  0.00  0.00     0.084 A 
ATOM     27  C   UNL d   1      56.494  84.053  87.759  0.00  0.00     0.011 A 
ATOM     28  C   UNL d   1      57.453  84.950  88.222  0.00  0.00     0.001 A 
BRANCH  26  29
ATOM     29  S   UNL d   1      55.095  81.765  87.858  0.00  0.00     0.191 S 
ATOM     30  O   UNL d   1      54.135  81.391  88.870  0.00  0.00    -0.222 OA
ATOM     31  O   UNL d   1      55.664  80.868  86.878  0.00  0.00    -0.222 OA
ATOM     32  C   UNL d   1      53.990  82.628  86.761  0.00  0.00     0.145 C 
ENDBRANCH  26  29
ENDBRANCH  20  23
ENDBRANCH  16  17
BRANCH  16  33
ATOM     33  C   UNL d   1      63.284  88.883  90.646  0.00  0.00     0.435 C 
ATOM     34  F   UNL d   1      63.276  90.250  90.711  0.00  0.00    -0.165 F 
ATOM     35  F   UNL d   1      64.569  88.515  90.906  0.00  0.00    -0.165 F 
ATOM     36  F   UNL d   1      63.075  88.583  89.328  0.00  0.00    -0.165 F 
ENDBRANCH  16  33
ENDBRANCH  15  16
ENDBRANCH   9  15
ENDBRANCH   7   9
ENDBRANCH   1   6
TORSDOF 10
ENDMDL
MODEL 12
REMARK VINA RESULT:      -6.3      5.676      9.815
REMARK  10 active torsions:
REMARK  status: ('A' for Active; 'I' for Inactive)
REMARK    1  A    between atoms: C_2  and  C_4 
REMARK    2  A    between atoms: C_5  and  C_4 
REMARK    3  A    between atoms: C_5  and  C_6 
REMARK    4  A    between atoms: C_5  and  N_14 
REMARK       I    between atoms: C_6  and  N_8 
REMARK    5  A    between atoms: N_8  and  C_9 
REMARK    6  A    between atoms: C_15  and  N_14 
REMARK    7  A    between atoms: C_15  and  C_16 
REMARK    8  A    between atoms: C_15  and  C_32 
REMARK    9  A    between atoms: C_19  and  C_22 
REMARK   10  A    between atoms: C_25  and  S_28 
ROOT
ATOM      1  C   UNL d   1      56.209  84.312  93.297  0.00  0.00     0.166 A 
ATOM      2  C   UNL d   1      56.425  85.659  93.793  0.00  0.00     0.040 A 
ATOM      3  C   UNL d   1      57.565  84.721  93.630  0.00  0.00     0.040 A 
ATOM      4  C   UNL d   1      55.644  83.394  94.264  0.00  0.00     0.095 C 
ATOM      5  N   UNL d   1      55.293  82.701  95.135  0.00  0.00    -0.194 NA
ENDROOT
BRANCH   1   6
ATOM      6  N   UNL d   1      55.978  84.221  91.841  0.00  0.00    -0.222 NA
ATOM      7  C   UNL d   1      54.749  84.492  91.379  0.00  0.00     0.300 C 
ATOM      8  O   UNL d   1      53.823  85.014  91.991  0.00  0.00    -0.263 OA
BRANCH   7   9
ATOM      9  C   UNL d   1      54.614  84.077  89.908  0.00  0.00     0.171 C 
BRANCH   9  10
ATOM     10  C   UNL d   1      55.299  82.905  89.453  0.00  0.00    -0.074 C 
BRANCH  10  11
ATOM     11  C   UNL d   1      55.998  81.826  88.781  0.00  0.00     0.181 C 
ATOM     12  C   UNL d   1      57.561  81.947  88.761  0.00  0.00     0.048 C 
ATOM     13  C   UNL d   1      55.506  81.562  87.312  0.00  0.00     0.048 C 
ATOM     14  F   UNL d   1      55.746  80.651  89.435  0.00  0.00    -0.228 F 
ENDBRANCH  10  11
ENDBRANCH   9  10
BRANCH   9  15
ATOM     15  N   UNL d   1      54.178  84.989  89.004  0.00  0.00    -0.229 NA
BRANCH  15  16
ATOM     16  C   UNL d   1      55.155  85.675  88.349  0.00  0.00     0.153 C 
BRANCH  16  17
ATOM     17  C   UNL d   1      56.169  86.356  89.193  0.00  0.00     0.022 A 
ATOM     18  C   UNL d   1      57.494  85.919  89.233  0.00  0.00     0.001 A 
ATOM     19  C   UNL d   1      58.421  86.494  90.104  0.00  0.00     0.000 A 
ATOM     20  C   UNL d   1      58.063  87.537  90.965  0.00  0.00     0.000 A 
ATOM     21  C   UNL d   1      56.751  88.013  90.880  0.00  0.00     0.000 A 
ATOM     22  C   UNL d   1      55.824  87.437  90.012  0.00  0.00     0.001 A 
BRANCH  20  23
ATOM     23  C   UNL d   1      59.009  88.072  91.952  0.00  0.00     0.000 A 
ATOM     24  C   UNL d   1      60.392  87.889  91.808  0.00  0.00     0.001 A 
ATOM     25  C   UNL d   1      61.292  88.332  92.775  0.00  0.00     0.011 A 
ATOM     26  C   UNL d   1      60.804  88.968  93.907  0.00  0.00     0.084 A 
ATOM     27  C   UNL d   1      59.445  89.191  94.077  0.00  0.00     0.011 A 
ATOM     28  C   UNL d   1      58.559  88.740  93.101  0.00  0.00     0.001 A 
BRANCH  26  29
ATOM     29  S   UNL d   1      61.884  89.508  95.148  0.00  0.00     0.191 S 
ATOM     30  O   UNL d   1      63.134  88.786  95.120  0.00  0.00    -0.222 OA
ATOM     31  O   UNL d   1      61.177  89.901  96.346  0.00  0.00    -0.222 OA
ATOM     32  C   UNL d   1      62.506  91.119  94.714  0.00  0.00     0.145 C 
ENDBRANCH  26  29
ENDBRANCH  20  23
ENDBRANCH  16  17
BRANCH  16  33
ATOM     33  C   UNL d   1      55.553  85.317  86.936  0.00  0.00     0.435 C 
ATOM     34  F   UNL d   1      55.792  86.423  86.165  0.00  0.00    -0.165 F 
ATOM     35  F   UNL d   1      56.667  84.544  86.816  0.00  0.00    -0.165 F 
ATOM     36  F   UNL d   1      54.560  84.634  86.290  0.00  0.00    -0.165 F 
ENDBRANCH  16  33
ENDBRANCH  15  16
ENDBRANCH   9  15
ENDBRANCH   7   9
ENDBRANCH   1   6
TORSDOF 10
ENDMDL
MODEL 13
REMARK VINA RESULT:      -6.2      5.531      9.441
REMARK  10 active torsions:
REMARK  status: ('A' for Active; 'I' for Inactive)
REMARK    1  A    between atoms: C_2  and  C_4 
REMARK    2  A    between atoms: C_5  and  C_4 
REMARK    3  A    between atoms: C_5  and  C_6 
REMARK    4  A    between atoms: C_5  and  N_14 
REMARK       I    between atoms: C_6  and  N_8 
REMARK    5  A    between atoms: N_8  and  C_9 
REMARK    6  A    between atoms: C_15  and  N_14 
REMARK    7  A    between atoms: C_15  and  C_16 
REMARK    8  A    between atoms: C_15  and  C_32 
REMARK    9  A    between atoms: C_19  and  C_22 
REMARK   10  A    between atoms: C_25  and  S_28 
ROOT
ATOM      1  C   UNL d   1      59.215  85.384  90.559  0.00  0.00     0.166 A 
ATOM      2  C   UNL d   1      58.449  85.616  89.347  0.00  0.00     0.040 A 
ATOM      3  C   UNL d   1      57.762  85.345  90.637  0.00  0.00     0.040 A 
ATOM      4  C   UNL d   1      59.819  84.071  90.651  0.00  0.00     0.095 C 
ATOM      5  N   UNL d   1      60.176  82.960  90.690  0.00  0.00    -0.194 NA
ENDROOT
BRANCH   1   6
ATOM      6  N   UNL d   1      59.790  86.601  91.167  0.00  0.00    -0.222 NA
ATOM      7  C   UNL d   1      60.967  87.043  90.703  0.00  0.00     0.300 C 
ATOM      8  O   UNL d   1      61.546  86.684  89.682  0.00  0.00    -0.263 OA
BRANCH   7   9
ATOM      9  C   UNL d   1      61.546  88.127  91.622  0.00  0.00     0.171 C 
BRANCH   9  10
ATOM     10  C   UNL d   1      60.878  88.419  92.854  0.00  0.00    -0.074 C 
BRANCH  10  11
ATOM     11  C   UNL d   1      60.383  88.604  94.205  0.00  0.00     0.181 C 
ATOM     12  C   UNL d   1      61.388  89.275  95.204  0.00  0.00     0.048 C 
ATOM     13  C   UNL d   1      59.833  87.290  94.870  0.00  0.00     0.048 C 
ATOM     14  F   UNL d   1      59.302  89.442  94.178  0.00  0.00    -0.228 F 
ENDBRANCH  10  11
ENDBRANCH   9  10
BRANCH   9  15
ATOM     15  N   UNL d   1      62.425  89.023  91.110  0.00  0.00    -0.229 NA
BRANCH  15  16
ATOM     16  C   UNL d   1      63.405  89.432  91.962  0.00  0.00     0.153 C 
BRANCH  16  17
ATOM     17  C   UNL d   1      64.497  88.462  92.232  0.00  0.00     0.022 A 
ATOM     18  C   UNL d   1      65.228  88.504  93.420  0.00  0.00     0.001 A 
ATOM     19  C   UNL d   1      66.321  87.661  93.629  0.00  0.00     0.000 A 
ATOM     20  C   UNL d   1      66.721  86.732  92.662  0.00  0.00     0.000 A 
ATOM     21  C   UNL d   1      65.950  86.651  91.498  0.00  0.00     0.000 A 
ATOM     22  C   UNL d   1      64.861  87.496  91.288  0.00  0.00     0.001 A 
BRANCH  20  23
ATOM     23  C   UNL d   1      67.930  85.918  92.837  0.00  0.00     0.000 A 
ATOM     24  C   UNL d   1      67.918  84.759  93.626  0.00  0.00     0.001 A 
ATOM     25  C   UNL d   1      69.076  84.018  93.855  0.00  0.00     0.011 A 
ATOM     26  C   UNL d   1      70.268  84.443  93.287  0.00  0.00     0.084 A 
ATOM     27  C   UNL d   1      70.319  85.570  92.480  0.00  0.00     0.011 A 
ATOM     28  C   UNL d   1      69.152  86.299  92.264  0.00  0.00     0.001 A 
BRANCH  26  29
ATOM     29  S   UNL d   1      71.737  83.570  93.569  0.00  0.00     0.191 S 
ATOM     30  O   UNL d   1      72.895  84.427  93.468  0.00  0.00    -0.222 OA
ATOM     31  O   UNL d   1      71.661  82.213  93.079  0.00  0.00    -0.222 OA
ATOM     32  C   UNL d   1      71.856  83.179  95.302  0.00  0.00     0.145 C 
ENDBRANCH  26  29
ENDBRANCH  20  23
ENDBRANCH  16  17
BRANCH  16  33
ATOM     33  C   UNL d   1      63.711  90.898  92.162  0.00  0.00     0.435 C 
ATOM     34  F   UNL d   1      64.967  91.105  92.666  0.00  0.00    -0.165 F 
ATOM     35  F   UNL d   1      63.636  91.673  91.046  0.00  0.00    -0.165 F 
ATOM     36  F   UNL d   1      62.860  91.471  93.067  0.00  0.00    -0.165 F 
ENDBRANCH  16  33
ENDBRANCH  15  16
ENDBRANCH   9  15
ENDBRANCH   7   9
ENDBRANCH   1   6
TORSDOF 10
ENDMDL
MODEL 14
REMARK VINA RESULT:      -6.2     16.006     18.073
REMARK  10 active torsions:
REMARK  status: ('A' for Active; 'I' for Inactive)
REMARK    1  A    between atoms: C_2  and  C_4 
REMARK    2  A    between atoms: C_5  and  C_4 
REMARK    3  A    between atoms: C_5  and  C_6 
REMARK    4  A    between atoms: C_5  and  N_14 
REMARK       I    between atoms: C_6  and  N_8 
REMARK    5  A    between atoms: N_8  and  C_9 
REMARK    6  A    between atoms: C_15  and  N_14 
REMARK    7  A    between atoms: C_15  and  C_16 
REMARK    8  A    between atoms: C_15  and  C_32 
REMARK    9  A    between atoms: C_19  and  C_22 
REMARK   10  A    between atoms: C_25  and  S_28 
ROOT
ATOM      1  C   UNL d   1      59.427  75.719 102.308  0.00  0.00     0.166 A 
ATOM      2  C   UNL d   1      60.359  75.888 101.208  0.00  0.00     0.040 A 
ATOM      3  C   UNL d   1      60.843  75.486 102.554  0.00  0.00     0.040 A 
ATOM      4  C   UNL d   1      58.952  76.955 102.894  0.00  0.00     0.095 C 
ATOM      5  N   UNL d   1      58.707  77.992 103.371  0.00  0.00    -0.194 NA
ENDROOT
BRANCH   1   6
ATOM      6  N   UNL d   1      58.639  74.471 102.262  0.00  0.00    -0.222 NA
ATOM      7  C   UNL d   1      57.424  74.512 101.699  0.00  0.00     0.300 C 
ATOM      8  O   UNL d   1      56.951  75.417 101.018  0.00  0.00    -0.263 OA
BRANCH   7   9
ATOM      9  C   UNL d   1      56.642  73.224 101.988  0.00  0.00     0.171 C 
BRANCH   9  10
ATOM     10  C   UNL d   1      55.708  73.210 103.073  0.00  0.00    -0.074 C 
BRANCH  10  11
ATOM     11  C   UNL d   1      54.615  73.090 104.019  0.00  0.00     0.181 C 
ATOM     12  C   UNL d   1      55.036  72.797 105.500  0.00  0.00     0.048 C 
ATOM     13  C   UNL d   1      53.521  72.041 103.602  0.00  0.00     0.048 C 
ATOM     14  F   UNL d   1      53.936  74.276 104.076  0.00  0.00    -0.228 F 
ENDBRANCH  10  11
ENDBRANCH   9  10
BRANCH   9  15
ATOM     15  N   UNL d   1      57.096  72.050 101.483  0.00  0.00    -0.229 NA
BRANCH  15  16
ATOM     16  C   UNL d   1      57.239  72.013 100.130  0.00  0.00     0.153 C 
BRANCH  16  17
ATOM     17  C   UNL d   1      58.631  71.976  99.610  0.00  0.00     0.022 A 
ATOM     18  C   UNL d   1      59.122  72.983  98.779  0.00  0.00     0.001 A 
ATOM     19  C   UNL d   1      60.393  72.895  98.208  0.00  0.00     0.000 A 
ATOM     20  C   UNL d   1      61.229  71.801  98.454  0.00  0.00     0.000 A 
ATOM     21  C   UNL d   1      60.757  70.823  99.335  0.00  0.00     0.000 A 
ATOM     22  C   UNL d   1      59.486  70.909  99.902  0.00  0.00     0.001 A 
BRANCH  20  23
ATOM     23  C   UNL d   1      62.522  71.658  97.773  0.00  0.00     0.000 A 
ATOM     24  C   UNL d   1      62.658  71.930  96.404  0.00  0.00     0.001 A 
ATOM     25  C   UNL d   1      63.864  71.731  95.735  0.00  0.00     0.011 A 
ATOM     26  C   UNL d   1      64.955  71.251  96.445  0.00  0.00     0.084 A 
ATOM     27  C   UNL d   1      64.870  70.993  97.806  0.00  0.00     0.011 A 
ATOM     28  C   UNL d   1      63.656  71.195  98.458  0.00  0.00     0.001 A 
BRANCH  26  29
ATOM     29  S   UNL d   1      66.464  70.961  95.649  0.00  0.00     0.191 S 
ATOM     30  O   UNL d   1      66.431  71.384  94.268  0.00  0.00    -0.222 OA
ATOM     31  O   UNL d   1      67.110  69.763  96.135  0.00  0.00    -0.222 OA
ATOM     32  C   UNL d   1      67.669  72.126  96.247  0.00  0.00     0.145 C 
ENDBRANCH  26  29
ENDBRANCH  20  23
ENDBRANCH  16  17
BRANCH  16  33
ATOM     33  C   UNL d   1      56.149  71.465  99.238  0.00  0.00     0.435 C 
ATOM     34  F   UNL d   1      54.976  71.262  99.913  0.00  0.00    -0.165 F 
ATOM     35  F   UNL d   1      55.822  72.237  98.166  0.00  0.00    -0.165 F 
ATOM     36  F   UNL d   1      56.487  70.243  98.723  0.00  0.00    -0.165 F 
ENDBRANCH  16  33
ENDBRANCH  15  16
ENDBRANCH   9  15
ENDBRANCH   7   9
ENDBRANCH   1   6
TORSDOF 10
ENDMDL
MODEL 15
REMARK VINA RESULT:      -6.2     19.645     20.918
REMARK  10 active torsions:
REMARK  status: ('A' for Active; 'I' for Inactive)
REMARK    1  A    between atoms: C_2  and  C_4 
REMARK    2  A    between atoms: C_5  and  C_4 
REMARK    3  A    between atoms: C_5  and  C_6 
REMARK    4  A    between atoms: C_5  and  N_14 
REMARK       I    between atoms: C_6  and  N_8 
REMARK    5  A    between atoms: N_8  and  C_9 
REMARK    6  A    between atoms: C_15  and  N_14 
REMARK    7  A    between atoms: C_15  and  C_16 
REMARK    8  A    between atoms: C_15  and  C_32 
REMARK    9  A    between atoms: C_19  and  C_22 
REMARK   10  A    between atoms: C_25  and  S_28 
ROOT
ATOM      1  C   UNL d   1      73.594  73.224  96.715  0.00  0.00     0.166 A 
ATOM      2  C   UNL d   1      72.193  72.897  96.912  0.00  0.00     0.040 A 
ATOM      3  C   UNL d   1      72.759  74.158  97.456  0.00  0.00     0.040 A 
ATOM      4  C   UNL d   1      74.510  72.493  97.565  0.00  0.00     0.095 C 
ATOM      5  N   UNL d   1      75.163  71.942  98.361  0.00  0.00    -0.194 NA
ENDROOT
BRANCH   1   6
ATOM      6  N   UNL d   1      73.930  73.704  95.360  0.00  0.00    -0.222 NA
ATOM      7  C   UNL d   1      74.920  74.599  95.235  0.00  0.00     0.300 C 
ATOM      8  O   UNL d   1      75.738  74.927  96.089  0.00  0.00    -0.263 OA
BRANCH   7   9
ATOM      9  C   UNL d   1      74.944  75.195  93.821  0.00  0.00     0.171 C 
BRANCH   9  10
ATOM     10  C   UNL d   1      75.997  76.098  93.469  0.00  0.00    -0.074 C 
BRANCH  10  11
ATOM     11  C   UNL d   1      77.151  76.834  92.986  0.00  0.00     0.181 C 
ATOM     12  C   UNL d   1      77.798  77.823  94.016  0.00  0.00     0.048 C 
ATOM     13  C   UNL d   1      76.896  77.615  91.646  0.00  0.00     0.048 C 
ATOM     14  F   UNL d   1      78.148  75.951  92.673  0.00  0.00    -0.228 F 
ENDBRANCH  10  11
ENDBRANCH   9  10
BRANCH   9  15
ATOM     15  N   UNL d   1      73.814  75.163  93.073  0.00  0.00    -0.229 NA
BRANCH  15  16
ATOM     16  C   UNL d   1      73.998  75.289  91.731  0.00  0.00     0.153 C 
BRANCH  16  17
ATOM     17  C   UNL d   1      74.487  74.084  91.012  0.00  0.00     0.022 A 
ATOM     18  C   UNL d   1      73.852  72.849  91.147  0.00  0.00     0.001 A 
ATOM     19  C   UNL d   1      74.372  71.698  90.555  0.00  0.00     0.000 A 
ATOM     20  C   UNL d   1      75.545  71.736  89.793  0.00  0.00     0.000 A 
ATOM     21  C   UNL d   1      76.146  72.985  89.609  0.00  0.00     0.000 A 
ATOM     22  C   UNL d   1      75.628  74.135  90.204  0.00  0.00     0.001 A 
BRANCH  20  23
ATOM     23  C   UNL d   1      76.148  70.510  89.256  0.00  0.00     0.000 A 
ATOM     24  C   UNL d   1      76.002  70.157  87.906  0.00  0.00     0.001 A 
ATOM     25  C   UNL d   1      76.511  68.962  87.404  0.00  0.00     0.011 A 
ATOM     26  C   UNL d   1      77.178  68.101  88.264  0.00  0.00     0.084 A 
ATOM     27  C   UNL d   1      77.367  68.424  89.600  0.00  0.00     0.011 A 
ATOM     28  C   UNL d   1      76.849  69.622  90.086  0.00  0.00     0.001 A 
BRANCH  26  29
ATOM     29  S   UNL d   1      77.802  66.592  87.689  0.00  0.00     0.191 S 
ATOM     30  O   UNL d   1      78.575  66.758  86.481  0.00  0.00    -0.222 OA
ATOM     31  O   UNL d   1      76.895  65.497  87.952  0.00  0.00    -0.222 OA
ATOM     32  C   UNL d   1      79.116  66.060  88.765  0.00  0.00     0.145 C 
ENDBRANCH  26  29
ENDBRANCH  20  23
ENDBRANCH  16  17
BRANCH  16  33
ATOM     33  C   UNL d   1      73.239  76.318  90.926  0.00  0.00     0.435 C 
ATOM     34  F   UNL d   1      74.038  76.972  90.028  0.00  0.00    -0.165 F 
ATOM     35  F   UNL d   1      72.191  75.842  90.200  0.00  0.00    -0.165 F 
ATOM     36  F   UNL d   1      72.718  77.298  91.726  0.00  0.00    -0.165 F 
ENDBRANCH  16  33
ENDBRANCH  15  16
ENDBRANCH   9  15
ENDBRANCH   7   9
ENDBRANCH   1   6
TORSDOF 10
ENDMDL
MODEL 16
REMARK VINA RESULT:      -6.1      2.960      4.193
REMARK  10 active torsions:
REMARK  status: ('A' for Active; 'I' for Inactive)
REMARK    1  A    between atoms: C_2  and  C_4 
REMARK    2  A    between atoms: C_5  and  C_4 
REMARK    3  A    between atoms: C_5  and  C_6 
REMARK    4  A    between atoms: C_5  and  N_14 
REMARK       I    between atoms: C_6  and  N_8 
REMARK    5  A    between atoms: N_8  and  C_9 
REMARK    6  A    between atoms: C_15  and  N_14 
REMARK    7  A    between atoms: C_15  and  C_16 
REMARK    8  A    between atoms: C_15  and  C_32 
REMARK    9  A    between atoms: C_19  and  C_22 
REMARK   10  A    between atoms: C_25  and  S_28 
ROOT
ATOM      1  C   UNL d   1      67.966  86.372  95.949  0.00  0.00     0.166 A 
ATOM      2  C   UNL d   1      68.439  85.000  95.980  0.00  0.00     0.040 A 
ATOM      3  C   UNL d   1      67.148  85.370  96.616  0.00  0.00     0.040 A 
ATOM      4  C   UNL d   1      68.632  87.263  96.877  0.00  0.00     0.095 C 
ATOM      5  N   UNL d   1      69.144  87.880  97.726  0.00  0.00    -0.194 NA
ENDROOT
BRANCH   1   6
ATOM      6  N   UNL d   1      67.405  86.801  94.652  0.00  0.00    -0.222 NA
ATOM      7  C   UNL d   1      66.379  87.664  94.663  0.00  0.00     0.300 C 
ATOM      8  O   UNL d   1      65.967  88.318  95.617  0.00  0.00    -0.263 OA
BRANCH   7   9
ATOM      9  C   UNL d   1      65.744  87.777  93.271  0.00  0.00     0.171 C 
BRANCH   9  10
ATOM     10  C   UNL d   1      65.439  86.579  92.549  0.00  0.00    -0.074 C 
BRANCH  10  11
ATOM     11  C   UNL d   1      65.200  85.251  92.014  0.00  0.00     0.181 C 
ATOM     12  C   UNL d   1      63.715  84.941  91.623  0.00  0.00     0.048 C 
ATOM     13  C   UNL d   1      65.720  84.088  92.935  0.00  0.00     0.048 C 
ATOM     14  F   UNL d   1      65.908  85.100  90.853  0.00  0.00    -0.228 F 
ENDBRANCH  10  11
ENDBRANCH   9  10
BRANCH   9  15
ATOM     15  N   UNL d   1      65.823  88.955  92.605  0.00  0.00    -0.229 NA
BRANCH  15  16
ATOM     16  C   UNL d   1      64.659  89.654  92.514  0.00  0.00     0.153 C 
BRANCH  16  17
ATOM     17  C   UNL d   1      63.483  88.919  91.982  0.00  0.00     0.022 A 
ATOM     18  C   UNL d   1      63.329  88.687  90.614  0.00  0.00     0.001 A 
ATOM     19  C   UNL d   1      62.175  88.089  90.107  0.00  0.00     0.000 A 
ATOM     20  C   UNL d   1      61.130  87.688  90.947  0.00  0.00     0.000 A 
ATOM     21  C   UNL d   1      61.313  87.867  92.322  0.00  0.00     0.000 A 
ATOM     22  C   UNL d   1      62.465  88.468  92.829  0.00  0.00     0.001 A 
BRANCH  20  23
ATOM     23  C   UNL d   1      59.875  87.153  90.405  0.00  0.00     0.000 A 
ATOM     24  C   UNL d   1      59.874  86.210  89.367  0.00  0.00     0.001 A 
ATOM     25  C   UNL d   1      58.687  85.750  88.800  0.00  0.00     0.011 A 
ATOM     26  C   UNL d   1      57.480  86.240  89.276  0.00  0.00     0.084 A 
ATOM     27  C   UNL d   1      57.436  87.154  90.319  0.00  0.00     0.011 A 
ATOM     28  C   UNL d   1      58.632  87.605  90.872  0.00  0.00     0.001 A 
BRANCH  26  29
ATOM     29  S   UNL d   1      55.983  85.718  88.581  0.00  0.00     0.191 S 
ATOM     30  O   UNL d   1      55.476  86.673  87.623  0.00  0.00    -0.222 OA
ATOM     31  O   UNL d   1      55.176  84.981  89.527  0.00  0.00    -0.222 OA
ATOM     32  C   UNL d   1      56.302  84.372  87.460  0.00  0.00     0.145 C 
ENDBRANCH  26  29
ENDBRANCH  20  23
ENDBRANCH  16  17
BRANCH  16  33
ATOM     33  C   UNL d   1      64.390  90.852  93.394  0.00  0.00     0.435 C 
ATOM     34  F   UNL d   1      63.401  91.656  92.896  0.00  0.00    -0.165 F 
ATOM     35  F   UNL d   1      64.019  90.571  94.674  0.00  0.00    -0.165 F 
ATOM     36  F   UNL d   1      65.491  91.657  93.500  0.00  0.00    -0.165 F 
ENDBRANCH  16  33
ENDBRANCH  15  16
ENDBRANCH   9  15
ENDBRANCH   7   9
ENDBRANCH   1   6
TORSDOF 10
ENDMDL
MODEL 17
REMARK VINA RESULT:      -6.0      2.768      4.280
REMARK  10 active torsions:
REMARK  status: ('A' for Active; 'I' for Inactive)
REMARK    1  A    between atoms: C_2  and  C_4 
REMARK    2  A    between atoms: C_5  and  C_4 
REMARK    3  A    between atoms: C_5  and  C_6 
REMARK    4  A    between atoms: C_5  and  N_14 
REMARK       I    between atoms: C_6  and  N_8 
REMARK    5  A    between atoms: N_8  and  C_9 
REMARK    6  A    between atoms: C_15  and  N_14 
REMARK    7  A    between atoms: C_15  and  C_16 
REMARK    8  A    between atoms: C_15  and  C_32 
REMARK    9  A    between atoms: C_19  and  C_22 
REMARK   10  A    between atoms: C_25  and  S_28 
ROOT
ATOM      1  C   UNL d   1      64.561  84.550  92.736  0.00  0.00     0.166 A 
ATOM      2  C   UNL d   1      63.392  84.102  92.001  0.00  0.00     0.040 A 
ATOM      3  C   UNL d   1      63.525  83.823  93.454  0.00  0.00     0.040 A 
ATOM      4  C   UNL d   1      65.754  83.759  92.516  0.00  0.00     0.095 C 
ATOM      5  N   UNL d   1      66.633  83.005  92.364  0.00  0.00    -0.194 NA
ENDROOT
BRANCH   1   6
ATOM      6  N   UNL d   1      64.575  85.993  93.053  0.00  0.00    -0.222 NA
ATOM      7  C   UNL d   1      65.151  86.826  92.176  0.00  0.00     0.300 C 
ATOM      8  O   UNL d   1      65.495  86.573  91.025  0.00  0.00    -0.263 OA
BRANCH   7   9
ATOM      9  C   UNL d   1      65.330  88.223  92.784  0.00  0.00     0.171 C 
BRANCH   9  10
ATOM     10  C   UNL d   1      65.145  88.393  94.194  0.00  0.00    -0.074 C 
BRANCH  10  11
ATOM     11  C   UNL d   1      64.746  88.653  95.564  0.00  0.00     0.181 C 
ATOM     12  C   UNL d   1      63.216  88.491  95.862  0.00  0.00     0.048 C 
ATOM     13  C   UNL d   1      65.208  90.053  96.110  0.00  0.00     0.048 C 
ATOM     14  F   UNL d   1      65.362  87.753  96.390  0.00  0.00    -0.228 F 
ENDBRANCH  10  11
ENDBRANCH   9  10
BRANCH   9  15
ATOM     15  N   UNL d   1      65.287  89.307  91.970  0.00  0.00    -0.229 NA
BRANCH  15  16
ATOM     16  C   UNL d   1      64.070  89.905  91.856  0.00  0.00     0.153 C 
BRANCH  16  17
ATOM     17  C   UNL d   1      62.936  89.031  91.460  0.00  0.00     0.022 A 
ATOM     18  C   UNL d   1      62.047  88.522  92.407  0.00  0.00     0.001 A 
ATOM     19  C   UNL d   1      61.044  87.619  92.048  0.00  0.00     0.000 A 
ATOM     20  C   UNL d   1      60.883  87.196  90.724  0.00  0.00     0.000 A 
ATOM     21  C   UNL d   1      61.737  87.754  89.768  0.00  0.00     0.000 A 
ATOM     22  C   UNL d   1      62.740  88.654  90.127  0.00  0.00     0.001 A 
BRANCH  20  23
ATOM     23  C   UNL d   1      59.897  86.170  90.364  0.00  0.00     0.000 A 
ATOM     24  C   UNL d   1      59.824  84.955  91.061  0.00  0.00     0.001 A 
ATOM     25  C   UNL d   1      58.939  83.948  90.682  0.00  0.00     0.011 A 
ATOM     26  C   UNL d   1      58.113  84.155  89.587  0.00  0.00     0.084 A 
ATOM     27  C   UNL d   1      58.136  85.352  88.885  0.00  0.00     0.011 A 
ATOM     28  C   UNL d   1      59.028  86.347  89.277  0.00  0.00     0.001 A 
BRANCH  26  29
ATOM     29  S   UNL d   1      57.019  82.920  89.063  0.00  0.00     0.191 S 
ATOM     30  O   UNL d   1      55.770  82.970  89.787  0.00  0.00    -0.222 OA
ATOM     31  O   UNL d   1      57.713  81.710  88.683  0.00  0.00    -0.222 OA
ATOM     32  C   UNL d   1      56.399  83.341  87.448  0.00  0.00     0.145 C 
ENDBRANCH  26  29
ENDBRANCH  20  23
ENDBRANCH  16  17
BRANCH  16  33
ATOM     33  C   UNL d   1      63.742  91.170  92.612  0.00  0.00     0.435 C 
ATOM     34  F   UNL d   1      64.835  91.700  93.243  0.00  0.00    -0.165 F 
ATOM     35  F   UNL d   1      63.227  92.186  91.866  0.00  0.00    -0.165 F 
ATOM     36  F   UNL d   1      62.828  90.942  93.604  0.00  0.00    -0.165 F 
ENDBRANCH  16  33
ENDBRANCH  15  16
ENDBRANCH   9  15
ENDBRANCH   7   9
ENDBRANCH   1   6
TORSDOF 10
ENDMDL
MODEL 18
REMARK VINA RESULT:      -6.0     18.915     21.636
REMARK  10 active torsions:
REMARK  status: ('A' for Active; 'I' for Inactive)
REMARK    1  A    between atoms: C_2  and  C_4 
REMARK    2  A    between atoms: C_5  and  C_4 
REMARK    3  A    between atoms: C_5  and  C_6 
REMARK    4  A    between atoms: C_5  and  N_14 
REMARK       I    between atoms: C_6  and  N_8 
REMARK    5  A    between atoms: N_8  and  C_9 
REMARK    6  A    between atoms: C_15  and  N_14 
REMARK    7  A    between atoms: C_15  and  C_16 
REMARK    8  A    between atoms: C_15  and  C_32 
REMARK    9  A    between atoms: C_19  and  C_22 
REMARK   10  A    between atoms: C_25  and  S_28 
ROOT
ATOM      1  C   UNL d   1      63.216  71.620  99.835  0.00  0.00     0.166 A 
ATOM      2  C   UNL d   1      62.456  72.091 100.979  0.00  0.00     0.040 A 
ATOM      3  C   UNL d   1      63.262  70.846 101.067  0.00  0.00     0.040 A 
ATOM      4  C   UNL d   1      62.424  70.985  98.802  0.00  0.00     0.095 C 
ATOM      5  N   UNL d   1      61.726  70.395  98.076  0.00  0.00    -0.194 NA
ENDROOT
BRANCH   1   6
ATOM      6  N   UNL d   1      64.465  72.364  99.577  0.00  0.00    -0.222 NA
ATOM      7  C   UNL d   1      65.593  71.662  99.399  0.00  0.00     0.300 C 
ATOM      8  O   UNL d   1      65.694  70.453  99.214  0.00  0.00    -0.263 OA
BRANCH   7   9
ATOM      9  C   UNL d   1      66.821  72.581  99.429  0.00  0.00     0.171 C 
BRANCH   9  10
ATOM     10  C   UNL d   1      67.805  72.455  98.397  0.00  0.00    -0.074 C 
BRANCH  10  11
ATOM     11  C   UNL d   1      68.618  72.327  97.202  0.00  0.00     0.181 C 
ATOM     12  C   UNL d   1      68.051  71.367  96.101  0.00  0.00     0.048 C 
ATOM     13  C   UNL d   1      70.111  71.923  97.486  0.00  0.00     0.048 C 
ATOM     14  F   UNL d   1      68.713  73.546  96.590  0.00  0.00    -0.228 F 
ENDBRANCH  10  11
ENDBRANCH   9  10
BRANCH   9  15
ATOM     15  N   UNL d   1      67.142  73.214 100.584  0.00  0.00    -0.229 NA
BRANCH  15  16
ATOM     16  C   UNL d   1      67.700  72.428 101.546  0.00  0.00     0.153 C 
BRANCH  16  17
ATOM     17  C   UNL d   1      69.154  72.154 101.418  0.00  0.00     0.022 A 
ATOM     18  C   UNL d   1      70.067  73.180 101.170  0.00  0.00     0.001 A 
ATOM     19  C   UNL d   1      71.418  72.910 100.948  0.00  0.00     0.000 A 
ATOM     20  C   UNL d   1      71.914  71.601 100.975  0.00  0.00     0.000 A 
ATOM     21  C   UNL d   1      71.008  70.582 101.283  0.00  0.00     0.000 A 
ATOM     22  C   UNL d   1      69.658  70.852 101.502  0.00  0.00     0.001 A 
BRANCH  20  23
ATOM     23  C   UNL d   1      73.313  71.307 100.640  0.00  0.00     0.000 A 
ATOM     24  C   UNL d   1      73.644  70.319  99.700  0.00  0.00     0.001 A 
ATOM     25  C   UNL d   1      74.968  69.985  99.427  0.00  0.00     0.011 A 
ATOM     26  C   UNL d   1      75.982  70.647 100.104  0.00  0.00     0.084 A 
ATOM     27  C   UNL d   1      75.699  71.648 101.023  0.00  0.00     0.011 A 
ATOM     28  C   UNL d   1      74.369  71.967 101.285  0.00  0.00     0.001 A 
BRANCH  26  29
ATOM     29  S   UNL d   1      77.641  70.243  99.818  0.00  0.00     0.191 S 
ATOM     30  O   UNL d   1      77.831  68.816  99.695  0.00  0.00    -0.222 OA
ATOM     31  O   UNL d   1      78.542  71.146 100.499  0.00  0.00    -0.222 OA
ATOM     32  C   UNL d   1      78.072  70.706  98.154  0.00  0.00     0.145 C 
ENDBRANCH  26  29
ENDBRANCH  20  23
ENDBRANCH  16  17
BRANCH  16  33
ATOM     33  C   UNL d   1      67.090  72.320 102.923  0.00  0.00     0.435 C 
ATOM     34  F   UNL d   1      68.034  72.170 103.902  0.00  0.00    -0.165 F 
ATOM     35  F   UNL d   1      66.326  73.377 103.314  0.00  0.00    -0.165 F 
ATOM     36  F   UNL d   1      66.281  71.222 103.031  0.00  0.00    -0.165 F 
ENDBRANCH  16  33
ENDBRANCH  15  16
ENDBRANCH   9  15
ENDBRANCH   7   9
ENDBRANCH   1   6
TORSDOF 10
ENDMDL
MODEL 19
REMARK VINA RESULT:      -5.9     15.036     16.719
REMARK  10 active torsions:
REMARK  status: ('A' for Active; 'I' for Inactive)
REMARK    1  A    between atoms: C_2  and  C_4 
REMARK    2  A    between atoms: C_5  and  C_4 
REMARK    3  A    between atoms: C_5  and  C_6 
REMARK    4  A    between atoms: C_5  and  N_14 
REMARK       I    between atoms: C_6  and  N_8 
REMARK    5  A    between atoms: N_8  and  C_9 
REMARK    6  A    between atoms: C_15  and  N_14 
REMARK    7  A    between atoms: C_15  and  C_16 
REMARK    8  A    between atoms: C_15  and  C_32 
REMARK    9  A    between atoms: C_19  and  C_22 
REMARK   10  A    between atoms: C_25  and  S_28 
ROOT
ATOM      1  C   UNL d   1      57.753  75.653 104.883  0.00  0.00     0.166 A 
ATOM      2  C   UNL d   1      56.438  75.951 105.421  0.00  0.00     0.040 A 
ATOM      3  C   UNL d   1      57.191  76.976 104.652  0.00  0.00     0.040 A 
ATOM      4  C   UNL d   1      58.822  75.658 105.861  0.00  0.00     0.095 C 
ATOM      5  N   UNL d   1      59.631  75.791 106.692  0.00  0.00    -0.194 NA
ENDROOT
BRANCH   1   6
ATOM      6  N   UNL d   1      57.747  74.807 103.673  0.00  0.00    -0.222 NA
ATOM      7  C   UNL d   1      58.473  75.206 102.620  0.00  0.00     0.300 C 
ATOM      8  O   UNL d   1      59.323  76.091 102.596  0.00  0.00    -0.263 OA
BRANCH   7   9
ATOM      9  C   UNL d   1      58.132  74.380 101.373  0.00  0.00     0.171 C 
BRANCH   9  10
ATOM     10  C   UNL d   1      56.974  74.729 100.607  0.00  0.00    -0.074 C 
BRANCH  10  11
ATOM     11  C   UNL d   1      55.948  75.090  99.646  0.00  0.00     0.181 C 
ATOM     12  C   UNL d   1      55.298  73.891  98.873  0.00  0.00     0.048 C 
ATOM     13  C   UNL d   1      56.408  76.163  98.593  0.00  0.00     0.048 C 
ATOM     14  F   UNL d   1      54.908  75.690 100.302  0.00  0.00    -0.228 F 
ENDBRANCH  10  11
ENDBRANCH   9  10
BRANCH   9  15
ATOM     15  N   UNL d   1      58.683  73.150 101.227  0.00  0.00    -0.229 NA
BRANCH  15  16
ATOM     16  C   UNL d   1      58.398  72.517 100.056  0.00  0.00     0.153 C 
BRANCH  16  17
ATOM     17  C   UNL d   1      59.371  72.701  98.948  0.00  0.00     0.022 A 
ATOM     18  C   UNL d   1      59.182  73.678  97.970  0.00  0.00     0.001 A 
ATOM     19  C   UNL d   1      60.040  73.782  96.874  0.00  0.00     0.000 A 
ATOM     20  C   UNL d   1      61.130  72.919  96.717  0.00  0.00     0.000 A 
ATOM     21  C   UNL d   1      61.352  71.980  97.729  0.00  0.00     0.000 A 
ATOM     22  C   UNL d   1      60.492  71.875  98.823  0.00  0.00     0.001 A 
BRANCH  20  23
ATOM     23  C   UNL d   1      61.971  72.960  95.514  0.00  0.00     0.000 A 
ATOM     24  C   UNL d   1      61.551  73.629  94.355  0.00  0.00     0.001 A 
ATOM     25  C   UNL d   1      62.310  73.615  93.187  0.00  0.00     0.011 A 
ATOM     26  C   UNL d   1      63.511  72.920  93.174  0.00  0.00     0.084 A 
ATOM     27  C   UNL d   1      63.975  72.266  94.307  0.00  0.00     0.011 A 
ATOM     28  C   UNL d   1      63.202  72.289  95.465  0.00  0.00     0.001 A 
BRANCH  26  29
ATOM     29  S   UNL d   1      64.473  72.852  91.736  0.00  0.00     0.191 S 
ATOM     30  O   UNL d   1      64.207  71.655  90.972  0.00  0.00    -0.222 OA
ATOM     31  O   UNL d   1      65.778  73.442  91.931  0.00  0.00    -0.222 OA
ATOM     32  C   UNL d   1      63.856  74.046  90.569  0.00  0.00     0.145 C 
ENDBRANCH  26  29
ENDBRANCH  20  23
ENDBRANCH  16  17
BRANCH  16  33
ATOM     33  C   UNL d   1      57.530  71.282 100.020  0.00  0.00     0.435 C 
ATOM     34  F   UNL d   1      56.386  71.426 100.757  0.00  0.00    -0.165 F 
ATOM     35  F   UNL d   1      57.118  70.887  98.784  0.00  0.00    -0.165 F 
ATOM     36  F   UNL d   1      58.172  70.200 100.558  0.00  0.00    -0.165 F 
ENDBRANCH  16  33
ENDBRANCH  15  16
ENDBRANCH   9  15
ENDBRANCH   7   9
ENDBRANCH   1   6
TORSDOF 10
ENDMDL
MODEL 20
REMARK VINA RESULT:      -5.8      2.791      3.752
REMARK  10 active torsions:
REMARK  status: ('A' for Active; 'I' for Inactive)
REMARK    1  A    between atoms: C_2  and  C_4 
REMARK    2  A    between atoms: C_5  and  C_4 
REMARK    3  A    between atoms: C_5  and  C_6 
REMARK    4  A    between atoms: C_5  and  N_14 
REMARK       I    between atoms: C_6  and  N_8 
REMARK    5  A    between atoms: N_8  and  C_9 
REMARK    6  A    between atoms: C_15  and  N_14 
REMARK    7  A    between atoms: C_15  and  C_16 
REMARK    8  A    between atoms: C_15  and  C_32 
REMARK    9  A    between atoms: C_19  and  C_22 
REMARK   10  A    between atoms: C_25  and  S_28 
ROOT
ATOM      1  C   UNL d   1      66.619  85.622  92.916  0.00  0.00     0.166 A 
ATOM      2  C   UNL d   1      67.077  85.986  91.587  0.00  0.00     0.040 A 
ATOM      3  C   UNL d   1      66.358  84.706  91.815  0.00  0.00     0.040 A 
ATOM      4  C   UNL d   1      67.659  85.150  93.806  0.00  0.00     0.095 C 
ATOM      5  N   UNL d   1      68.538  84.681  94.415  0.00  0.00    -0.194 NA
ENDROOT
BRANCH   1   6
ATOM      6  N   UNL d   1      65.408  86.337  93.367  0.00  0.00    -0.222 NA
ATOM      7  C   UNL d   1      65.567  87.486  94.038  0.00  0.00     0.300 C 
ATOM      8  O   UNL d   1      66.597  88.144  94.153  0.00  0.00    -0.263 OA
BRANCH   7   9
ATOM      9  C   UNL d   1      64.244  87.938  94.671  0.00  0.00     0.171 C 
BRANCH   9  10
ATOM     10  C   UNL d   1      63.325  86.945  95.138  0.00  0.00    -0.074 C 
BRANCH  10  11
ATOM     11  C   UNL d   1      62.330  85.918  95.384  0.00  0.00     0.181 C 
ATOM     12  C   UNL d   1      61.946  85.041  94.142  0.00  0.00     0.048 C 
ATOM     13  C   UNL d   1      61.004  86.456  96.035  0.00  0.00     0.048 C 
ATOM     14  F   UNL d   1      62.817  85.030  96.303  0.00  0.00    -0.228 F 
ENDBRANCH  10  11
ENDBRANCH   9  10
BRANCH   9  15
ATOM     15  N   UNL d   1      63.806  89.202  94.449  0.00  0.00    -0.229 NA
BRANCH  15  16
ATOM     16  C   UNL d   1      63.563  89.516  93.147  0.00  0.00     0.153 C 
BRANCH  16  17
ATOM     17  C   UNL d   1      62.463  88.774  92.479  0.00  0.00     0.022 A 
ATOM     18  C   UNL d   1      62.681  88.056  91.302  0.00  0.00     0.001 A 
ATOM     19  C   UNL d   1      61.627  87.446  90.620  0.00  0.00     0.000 A 
ATOM     20  C   UNL d   1      60.312  87.521  91.091  0.00  0.00     0.000 A 
ATOM     21  C   UNL d   1      60.106  88.191  92.301  0.00  0.00     0.000 A 
ATOM     22  C   UNL d   1      61.158  88.802  92.982  0.00  0.00     0.001 A 
BRANCH  20  23
ATOM     23  C   UNL d   1      59.191  86.969  90.321  0.00  0.00     0.000 A 
ATOM     24  C   UNL d   1      57.862  87.278  90.647  0.00  0.00     0.001 A 
ATOM     25  C   UNL d   1      56.791  86.704  89.967  0.00  0.00     0.011 A 
ATOM     26  C   UNL d   1      57.049  85.805  88.942  0.00  0.00     0.084 A 
ATOM     27  C   UNL d   1      58.349  85.491  88.571  0.00  0.00     0.011 A 
ATOM     28  C   UNL d   1      59.408  86.073  89.264  0.00  0.00     0.001 A 
BRANCH  26  29
ATOM     29  S   UNL d   1      55.748  85.045  88.089  0.00  0.00     0.191 S 
ATOM     30  O   UNL d   1      55.450  85.728  86.851  0.00  0.00    -0.222 OA
ATOM     31  O   UNL d   1      54.764  84.488  88.989  0.00  0.00    -0.222 OA
ATOM     32  C   UNL d   1      56.324  83.507  87.402  0.00  0.00     0.145 C 
ENDBRANCH  26  29
ENDBRANCH  20  23
ENDBRANCH  16  17
BRANCH  16  33
ATOM     33  C   UNL d   1      63.934  90.867  92.582  0.00  0.00     0.435 C 
ATOM     34  F   UNL d   1      62.989  91.821  92.845  0.00  0.00    -0.165 F 
ATOM     35  F   UNL d   1      65.110  91.389  93.029  0.00  0.00    -0.165 F 
ATOM     36  F   UNL d   1      64.042  90.831  91.219  0.00  0.00    -0.165 F 
ENDBRANCH  16  33
ENDBRANCH  15  16
ENDBRANCH   9  15
ENDBRANCH   7   9
ENDBRANCH   1   6
TORSDOF 10
ENDMDL
