MODEL 1
REMARK VINA RESULT:      -5.6      0.000      0.000
REMARK  3 active torsions:
REMARK  status: ('A' for Active; 'I' for Inactive)
REMARK    1  A    between atoms: N_1  and  C_10 
REMARK    2  A    between atoms: C_2  and  N_7 
REMARK    3  A    between atoms: C_10  and  C_11 
ROOT
ATOM      1  C   UNL d   1      84.144  81.908  96.511  0.00  0.00     0.292 C 
ATOM      2  C   UNL d   1      85.202  81.125  95.989  0.00  0.00     0.019 C 
ATOM      3 CL   UNL d   1      86.500  80.139  95.332  0.00  0.00    -0.027 Cl
ATOM      4  O   UNL d   1      84.427  82.894  97.222  0.00  0.00    -0.267 OA
ENDROOT
BRANCH   1   5
ATOM      5  C   UNL d   1      82.773  81.657  96.287  0.00  0.00     0.034 C 
BRANCH   5   6
ATOM      6  N   UNL d   1      81.381  81.419  96.074  0.00  0.00    -0.237 N 
ATOM      7  C   UNL d   1      80.325  81.832  96.838  0.00  0.00     0.220 A 
ATOM      8  C   UNL d   1      79.191  81.359  96.233  0.00  0.00     0.143 A 
ATOM      9  N   UNL d   1      79.507  80.657  95.104  0.00  0.00    -0.227 NA
ATOM     10  C   UNL d   1      80.826  80.704  95.025  0.00  0.00     0.133 A 
ATOM     11  C   UNL d   1      81.530  80.018  93.879  0.00  0.00     0.073 C 
BRANCH   7  12
ATOM     12  N   UNL d   1      80.388  82.597  98.021  0.00  0.00    -0.094 N 
ATOM     13  O   UNL d   1      80.232  83.818  97.876  0.00  0.00    -0.530 OA
ATOM     14  O   UNL d   1      80.589  82.034  99.096  0.00  0.00    -0.530 OA
ENDBRANCH   7  12
ENDBRANCH   5   6
ENDBRANCH   1   5
TORSDOF 3
ENDMDL
MODEL 2
REMARK VINA RESULT:      -5.2      2.981      4.640
REMARK  3 active torsions:
REMARK  status: ('A' for Active; 'I' for Inactive)
REMARK    1  A    between atoms: N_1  and  C_10 
REMARK    2  A    between atoms: C_2  and  N_7 
REMARK    3  A    between atoms: C_10  and  C_11 
ROOT
ATOM      1  C   UNL d   1      80.883  82.195  97.615  0.00  0.00     0.292 C 
ATOM      2  C   UNL d   1      79.531  82.432  97.268  0.00  0.00     0.019 C 
ATOM      3 CL   UNL d   1      77.857  82.720  96.817  0.00  0.00    -0.027 Cl
ATOM      4  O   UNL d   1      81.246  82.420  98.787  0.00  0.00    -0.267 OA
ENDROOT
BRANCH   1   5
ATOM      5  C   UNL d   1      81.867  81.715  96.724  0.00  0.00     0.034 C 
BRANCH   5   6
ATOM      6  N   UNL d   1      82.878  81.245  95.830  0.00  0.00    -0.237 N 
ATOM      7  C   UNL d   1      84.235  81.341  95.962  0.00  0.00     0.220 A 
ATOM      8  C   UNL d   1      84.782  80.748  94.856  0.00  0.00     0.143 A 
ATOM      9  N   UNL d   1      83.801  80.281  94.027  0.00  0.00    -0.227 NA
ATOM     10  C   UNL d   1      82.665  80.588  94.630  0.00  0.00     0.133 A 
ATOM     11  C   UNL d   1      81.352  80.214  93.984  0.00  0.00     0.073 C 
BRANCH   7  12
ATOM     12  N   UNL d   1      84.939  81.935  97.030  0.00  0.00    -0.094 N 
ATOM     13  O   UNL d   1      85.662  81.169  97.684  0.00  0.00    -0.530 OA
ATOM     14  O   UNL d   1      84.804  83.137  97.250  0.00  0.00    -0.530 OA
ENDBRANCH   7  12
ENDBRANCH   5   6
ENDBRANCH   1   5
TORSDOF 3
ENDMDL
MODEL 3
REMARK VINA RESULT:      -5.1     13.650     15.101
REMARK  3 active torsions:
REMARK  status: ('A' for Active; 'I' for Inactive)
REMARK    1  A    between atoms: N_1  and  C_10 
REMARK    2  A    between atoms: C_2  and  N_7 
REMARK    3  A    between atoms: C_10  and  C_11 
ROOT
ATOM      1  C   UNL d   1      76.530  69.031  87.218  0.00  0.00     0.292 C 
ATOM      2  C   UNL d   1      77.230  67.837  87.518  0.00  0.00     0.019 C 
ATOM      3 CL   UNL d   1      78.102  66.363  87.909  0.00  0.00    -0.027 Cl
ATOM      4  O   UNL d   1      76.107  69.199  86.056  0.00  0.00    -0.267 OA
ENDROOT
BRANCH   1   5
ATOM      5  C   UNL d   1      76.270  70.062  88.147  0.00  0.00     0.034 C 
BRANCH   5   6
ATOM      6  N   UNL d   1      76.017  71.121  89.072  0.00  0.00    -0.237 N 
ATOM      7  C   UNL d   1      75.077  71.171  90.064  0.00  0.00     0.220 A 
ATOM      8  C   UNL d   1      75.219  72.386  90.680  0.00  0.00     0.143 A 
ATOM      9  N   UNL d   1      76.226  73.104  90.100  0.00  0.00    -0.227 NA
ATOM     10  C   UNL d   1      76.693  72.328  89.136  0.00  0.00     0.133 A 
ATOM     11  C   UNL d   1      77.833  72.814  88.273  0.00  0.00     0.073 C 
BRANCH   7  12
ATOM     12  N   UNL d   1      74.143  70.168  90.392  0.00  0.00    -0.094 N 
ATOM     13  O   UNL d   1      74.378  69.540  91.435  0.00  0.00    -0.530 OA
ATOM     14  O   UNL d   1      73.179  69.973  89.654  0.00  0.00    -0.530 OA
ENDBRANCH   7  12
ENDBRANCH   5   6
ENDBRANCH   1   5
TORSDOF 3
ENDMDL
MODEL 4
REMARK VINA RESULT:      -5.0      1.892      2.101
REMARK  3 active torsions:
REMARK  status: ('A' for Active; 'I' for Inactive)
REMARK    1  A    between atoms: N_1  and  C_10 
REMARK    2  A    between atoms: C_2  and  N_7 
REMARK    3  A    between atoms: C_10  and  C_11 
ROOT
ATOM      1  C   UNL d   1      82.927  79.323  96.209  0.00  0.00     0.292 C 
ATOM      2  C   UNL d   1      84.117  79.799  95.606  0.00  0.00     0.019 C 
ATOM      3 CL   UNL d   1      85.583  80.407  94.852  0.00  0.00    -0.027 Cl
ATOM      4  O   UNL d   1      82.942  78.200  96.753  0.00  0.00    -0.267 OA
ENDROOT
BRANCH   1   5
ATOM      5  C   UNL d   1      81.706  80.032  96.243  0.00  0.00     0.034 C 
BRANCH   5   6
ATOM      6  N   UNL d   1      80.461  80.732  96.264  0.00  0.00    -0.237 N 
ATOM      7  C   UNL d   1      80.019  81.644  97.182  0.00  0.00     0.220 A 
ATOM      8  C   UNL d   1      78.770  82.034  96.779  0.00  0.00     0.143 A 
ATOM      9  N   UNL d   1      78.412  81.390  95.629  0.00  0.00    -0.227 NA
ATOM     10  C   UNL d   1      79.441  80.612  95.335  0.00  0.00     0.133 A 
ATOM     11  C   UNL d   1      79.389  79.740  94.104  0.00  0.00     0.073 C 
BRANCH   7  12
ATOM     12  N   UNL d   1      80.713  82.097  98.322  0.00  0.00    -0.094 N 
ATOM     13  O   UNL d   1      80.236  81.748  99.412  0.00  0.00    -0.530 OA
ATOM     14  O   UNL d   1      81.718  82.792  98.183  0.00  0.00    -0.530 OA
ENDBRANCH   7  12
ENDBRANCH   5   6
ENDBRANCH   1   5
TORSDOF 3
ENDMDL
MODEL 5
REMARK VINA RESULT:      -4.9     16.947     18.601
REMARK  3 active torsions:
REMARK  status: ('A' for Active; 'I' for Inactive)
REMARK    1  A    between atoms: N_1  and  C_10 
REMARK    2  A    between atoms: C_2  and  N_7 
REMARK    3  A    between atoms: C_10  and  C_11 
ROOT
ATOM      1  C   UNL d   1      66.634  87.465  93.481  0.00  0.00     0.292 C 
ATOM      2  C   UNL d   1      67.806  86.977  92.855  0.00  0.00     0.019 C 
ATOM      3 CL   UNL d   1      69.258  86.386  92.061  0.00  0.00    -0.027 Cl
ATOM      4  O   UNL d   1      66.282  86.957  94.566  0.00  0.00    -0.267 OA
ENDROOT
BRANCH   1   5
ATOM      5  C   UNL d   1      65.819  88.496  92.966  0.00  0.00     0.034 C 
BRANCH   5   6
ATOM      6  N   UNL d   1      64.978  89.525  92.441  0.00  0.00    -0.237 N 
ATOM      7  C   UNL d   1      64.765  90.780  92.937  0.00  0.00     0.220 A 
ATOM      8  C   UNL d   1      63.881  91.394  92.091  0.00  0.00     0.143 A 
ATOM      9  N   UNL d   1      63.529  90.555  91.072  0.00  0.00    -0.227 NA
ATOM     10  C   UNL d   1      64.198  89.437  91.299  0.00  0.00     0.133 A 
ATOM     11  C   UNL d   1      64.046  88.271  90.352  0.00  0.00     0.073 C 
BRANCH   7  12
ATOM     12  N   UNL d   1      65.344  91.339  94.096  0.00  0.00    -0.094 N 
ATOM     13  O   UNL d   1      64.691  91.198  95.139  0.00  0.00    -0.530 OA
ATOM     14  O   UNL d   1      66.427  91.916  94.013  0.00  0.00    -0.530 OA
ENDBRANCH   7  12
ENDBRANCH   5   6
ENDBRANCH   1   5
TORSDOF 3
ENDMDL
MODEL 6
REMARK VINA RESULT:      -4.7      4.071      5.355
REMARK  3 active torsions:
REMARK  status: ('A' for Active; 'I' for Inactive)
REMARK    1  A    between atoms: N_1  and  C_10 
REMARK    2  A    between atoms: C_2  and  N_7 
REMARK    3  A    between atoms: C_10  and  C_11 
ROOT
ATOM      1  C   UNL d   1      82.787  78.404  94.708  0.00  0.00     0.292 C 
ATOM      2  C   UNL d   1      81.437  78.291  94.296  0.00  0.00     0.019 C 
ATOM      3 CL   UNL d   1      79.758  78.170  93.795  0.00  0.00    -0.027 Cl
ATOM      4  O   UNL d   1      83.572  77.470  94.444  0.00  0.00    -0.267 OA
ENDROOT
BRANCH   1   5
ATOM      5  C   UNL d   1      83.323  79.509  95.404  0.00  0.00     0.034 C 
BRANCH   5   6
ATOM      6  N   UNL d   1      83.845  80.636  96.110  0.00  0.00    -0.237 N 
ATOM      7  C   UNL d   1      85.095  80.799  96.641  0.00  0.00     0.220 A 
ATOM      8  C   UNL d   1      85.120  82.040  97.218  0.00  0.00     0.143 A 
ATOM      9  N   UNL d   1      83.915  82.665  97.065  0.00  0.00    -0.227 NA
ATOM     10  C   UNL d   1      83.162  81.807  96.397  0.00  0.00     0.133 A 
ATOM     11  C   UNL d   1      81.740  82.175  96.047  0.00  0.00     0.073 C 
BRANCH   7  12
ATOM     12  N   UNL d   1      86.155  79.870  96.601  0.00  0.00    -0.094 N 
ATOM     13  O   UNL d   1      86.682  79.708  95.491  0.00  0.00    -0.530 OA
ATOM     14  O   UNL d   1      86.488  79.288  97.632  0.00  0.00    -0.530 OA
ENDBRANCH   7  12
ENDBRANCH   5   6
ENDBRANCH   1   5
TORSDOF 3
ENDMDL
MODEL 7
REMARK VINA RESULT:      -4.7     13.722     15.277
REMARK  3 active torsions:
REMARK  status: ('A' for Active; 'I' for Inactive)
REMARK    1  A    between atoms: N_1  and  C_10 
REMARK    2  A    between atoms: C_2  and  N_7 
REMARK    3  A    between atoms: C_10  and  C_11 
ROOT
ATOM      1  C   UNL d   1      74.896  71.291  90.234  0.00  0.00     0.292 C 
ATOM      2  C   UNL d   1      75.221  72.669  90.228  0.00  0.00     0.019 C 
ATOM      3 CL   UNL d   1      75.644  74.374  90.211  0.00  0.00    -0.027 Cl
ATOM      4  O   UNL d   1      73.830  70.932  90.775  0.00  0.00    -0.267 OA
ENDROOT
BRANCH   1   5
ATOM      5  C   UNL d   1      75.696  70.276  89.667  0.00  0.00     0.034 C 
BRANCH   5   6
ATOM      6  N   UNL d   1      76.487  69.236  89.088  0.00  0.00    -0.237 N 
ATOM      7  C   UNL d   1      77.406  68.431  89.701  0.00  0.00     0.220 A 
ATOM      8  C   UNL d   1      77.902  67.594  88.738  0.00  0.00     0.143 A 
ATOM      9  N   UNL d   1      77.318  67.852  87.530  0.00  0.00    -0.227 NA
ATOM     10  C   UNL d   1      76.471  68.841  87.761  0.00  0.00     0.133 A 
ATOM     11  C   UNL d   1      75.639  69.391  86.627  0.00  0.00     0.073 C 
BRANCH   7  12
ATOM     12  N   UNL d   1      77.774  68.455  91.062  0.00  0.00    -0.094 N 
ATOM     13  O   UNL d   1      78.691  69.238  91.354  0.00  0.00    -0.530 OA
ATOM     14  O   UNL d   1      77.190  67.725  91.860  0.00  0.00    -0.530 OA
ENDBRANCH   7  12
ENDBRANCH   5   6
ENDBRANCH   1   5
TORSDOF 3
ENDMDL
MODEL 8
REMARK VINA RESULT:      -4.7     21.043     21.446
REMARK  3 active torsions:
REMARK  status: ('A' for Active; 'I' for Inactive)
REMARK    1  A    between atoms: N_1  and  C_10 
REMARK    2  A    between atoms: C_2  and  N_7 
REMARK    3  A    between atoms: C_10  and  C_11 
ROOT
ATOM      1  C   UNL d   1      61.903  87.574  91.963  0.00  0.00     0.292 C 
ATOM      2  C   UNL d   1      61.661  87.670  90.571  0.00  0.00     0.019 C 
ATOM      3 CL   UNL d   1      61.365  87.808  88.844  0.00  0.00    -0.027 Cl
ATOM      4  O   UNL d   1      61.705  86.480  92.529  0.00  0.00    -0.267 OA
ENDROOT
BRANCH   1   5
ATOM      5  C   UNL d   1      62.357  88.638  92.772  0.00  0.00     0.034 C 
BRANCH   5   6
ATOM      6  N   UNL d   1      62.834  89.718  93.577  0.00  0.00    -0.237 N 
ATOM      7  C   UNL d   1      62.735  89.872  94.932  0.00  0.00     0.220 A 
ATOM      8  C   UNL d   1      63.337  91.063  95.238  0.00  0.00     0.143 A 
ATOM      9  N   UNL d   1      63.813  91.665  94.108  0.00  0.00    -0.227 NA
ATOM     10  C   UNL d   1      63.502  90.842  93.121  0.00  0.00     0.133 A 
ATOM     11  C   UNL d   1      63.884  91.198  91.704  0.00  0.00     0.073 C 
BRANCH   7  12
ATOM     12  N   UNL d   1      62.131  88.979  95.840  0.00  0.00    -0.094 N 
ATOM     13  O   UNL d   1      61.026  89.330  96.279  0.00  0.00    -0.530 OA
ATOM     14  O   UNL d   1      62.710  87.937  96.140  0.00  0.00    -0.530 OA
ENDBRANCH   7  12
ENDBRANCH   5   6
ENDBRANCH   1   5
TORSDOF 3
ENDMDL
MODEL 9
REMARK VINA RESULT:      -4.5     15.244     15.945
REMARK  3 active torsions:
REMARK  status: ('A' for Active; 'I' for Inactive)
REMARK    1  A    between atoms: N_1  and  C_10 
REMARK    2  A    between atoms: C_2  and  N_7 
REMARK    3  A    between atoms: C_10  and  C_11 
ROOT
ATOM      1  C   UNL d   1      78.040  67.896  90.749  0.00  0.00     0.292 C 
ATOM      2  C   UNL d   1      78.194  66.540  91.127  0.00  0.00     0.019 C 
ATOM      3 CL   UNL d   1      78.375  64.852  91.580  0.00  0.00    -0.027 Cl
ATOM      4  O   UNL d   1      78.483  68.782  91.509  0.00  0.00    -0.267 OA
ENDROOT
BRANCH   1   5
ATOM      5  C   UNL d   1      77.415  68.331  89.560  0.00  0.00     0.034 C 
BRANCH   5   6
ATOM      6  N   UNL d   1      76.791  68.791  88.360  0.00  0.00    -0.237 N 
ATOM      7  C   UNL d   1      75.738  69.653  88.230  0.00  0.00     0.220 A 
ATOM      8  C   UNL d   1      75.501  69.786  86.888  0.00  0.00     0.143 A 
ATOM      9  N   UNL d   1      76.380  69.028  86.167  0.00  0.00    -0.227 NA
ATOM     10  C   UNL d   1      77.147  68.438  87.068  0.00  0.00     0.133 A 
ATOM     11  C   UNL d   1      78.248  67.508  86.618  0.00  0.00     0.073 C 
BRANCH   7  12
ATOM     12  N   UNL d   1      75.031  70.284  89.274  0.00  0.00    -0.094 N 
ATOM     13  O   UNL d   1      75.593  71.265  89.782  0.00  0.00    -0.530 OA
ATOM     14  O   UNL d   1      73.935  69.844  89.615  0.00  0.00    -0.530 OA
ENDBRANCH   7  12
ENDBRANCH   5   6
ENDBRANCH   1   5
TORSDOF 3
ENDMDL
MODEL 10
REMARK VINA RESULT:      -4.5     15.061     15.605
REMARK  3 active torsions:
REMARK  status: ('A' for Active; 'I' for Inactive)
REMARK    1  A    between atoms: N_1  and  C_10 
REMARK    2  A    between atoms: C_2  and  N_7 
REMARK    3  A    between atoms: C_10  and  C_11 
ROOT
ATOM      1  C   UNL d   1      78.636  67.806  90.011  0.00  0.00     0.292 C 
ATOM      2  C   UNL d   1      78.753  66.594  89.288  0.00  0.00     0.019 C 
ATOM      3 CL   UNL d   1      78.877  65.091  88.386  0.00  0.00    -0.027 Cl
ATOM      4  O   UNL d   1      79.658  68.282  90.546  0.00  0.00    -0.267 OA
ENDROOT
BRANCH   1   5
ATOM      5  C   UNL d   1      77.435  68.528  90.177  0.00  0.00     0.034 C 
BRANCH   5   6
ATOM      6  N   UNL d   1      76.207  69.242  90.335  0.00  0.00    -0.237 N 
ATOM      7  C   UNL d   1      75.487  69.910  89.384  0.00  0.00     0.220 A 
ATOM      8  C   UNL d   1      74.390  70.433  90.014  0.00  0.00     0.143 A 
ATOM      9  N   UNL d   1      74.401  70.112  91.342  0.00  0.00    -0.227 NA
ATOM     10  C   UNL d   1      75.499  69.396  91.516  0.00  0.00     0.133 A 
ATOM     11  C   UNL d   1      75.835  68.865  92.889  0.00  0.00     0.073 C 
BRANCH   7  12
ATOM     12  N   UNL d   1      75.810  70.036  88.017  0.00  0.00    -0.094 N 
ATOM     13  O   UNL d   1      75.464  69.088  87.297  0.00  0.00    -0.530 OA
ATOM     14  O   UNL d   1      76.396  71.043  87.624  0.00  0.00    -0.530 OA
ENDBRANCH   7  12
ENDBRANCH   5   6
ENDBRANCH   1   5
TORSDOF 3
ENDMDL
MODEL 11
REMARK VINA RESULT:      -4.5     17.183     18.914
REMARK  3 active torsions:
REMARK  status: ('A' for Active; 'I' for Inactive)
REMARK    1  A    between atoms: N_1  and  C_10 
REMARK    2  A    between atoms: C_2  and  N_7 
REMARK    3  A    between atoms: C_10  and  C_11 
ROOT
ATOM      1  C   UNL d   1      66.458  87.221  93.233  0.00  0.00     0.292 C 
ATOM      2  C   UNL d   1      67.724  86.902  92.684  0.00  0.00     0.019 C 
ATOM      3 CL   UNL d   1      69.295  86.525  91.994  0.00  0.00    -0.027 Cl
ATOM      4  O   UNL d   1      65.852  86.346  93.883  0.00  0.00    -0.267 OA
ENDROOT
BRANCH   1   5
ATOM      5  C   UNL d   1      65.819  88.473  93.099  0.00  0.00     0.034 C 
BRANCH   5   6
ATOM      6  N   UNL d   1      65.152  89.729  92.964  0.00  0.00    -0.237 N 
ATOM      7  C   UNL d   1      64.079  90.037  92.175  0.00  0.00     0.220 A 
ATOM      8  C   UNL d   1      63.803  91.362  92.385  0.00  0.00     0.143 A 
ATOM      9  N   UNL d   1      64.677  91.898  93.288  0.00  0.00    -0.227 NA
ATOM     10  C   UNL d   1      65.480  90.902  93.624  0.00  0.00     0.133 A 
ATOM     11  C   UNL d   1      66.588  91.141  94.622  0.00  0.00     0.073 C 
BRANCH   7  12
ATOM     12  N   UNL d   1      63.388  89.162  91.312  0.00  0.00    -0.094 N 
ATOM     13  O   UNL d   1      64.054  88.700  90.375  0.00  0.00    -0.530 OA
ATOM     14  O   UNL d   1      62.203  88.913  91.525  0.00  0.00    -0.530 OA
ENDBRANCH   7  12
ENDBRANCH   5   6
ENDBRANCH   1   5
TORSDOF 3
ENDMDL
MODEL 12
REMARK VINA RESULT:      -4.4     13.490     14.901
REMARK  3 active torsions:
REMARK  status: ('A' for Active; 'I' for Inactive)
REMARK    1  A    between atoms: N_1  and  C_10 
REMARK    2  A    between atoms: C_2  and  N_7 
REMARK    3  A    between atoms: C_10  and  C_11 
ROOT
ATOM      1  C   UNL d   1      76.134  69.128  87.823  0.00  0.00     0.292 C 
ATOM      2  C   UNL d   1      77.139  68.474  87.071  0.00  0.00     0.019 C 
ATOM      3 CL   UNL d   1      78.400  67.662  86.155  0.00  0.00    -0.027 Cl
ATOM      4  O   UNL d   1      75.058  69.414  87.259  0.00  0.00    -0.267 OA
ENDROOT
BRANCH   1   5
ATOM      5  C   UNL d   1      76.256  69.488  89.183  0.00  0.00     0.034 C 
BRANCH   5   6
ATOM      6  N   UNL d   1      76.362  69.867  90.556  0.00  0.00    -0.237 N 
ATOM      7  C   UNL d   1      75.722  70.886  91.205  0.00  0.00     0.220 A 
ATOM      8  C   UNL d   1      76.147  70.853  92.506  0.00  0.00     0.143 A 
ATOM      9  N   UNL d   1      77.041  69.838  92.694  0.00  0.00    -0.227 NA
ATOM     10  C   UNL d   1      77.157  69.257  91.512  0.00  0.00     0.133 A 
ATOM     11  C   UNL d   1      78.082  68.074  91.349  0.00  0.00     0.073 C 
BRANCH   7  12
ATOM     12  N   UNL d   1      74.801  71.795  90.645  0.00  0.00    -0.094 N 
ATOM     13  O   UNL d   1      73.606  71.548  90.864  0.00  0.00    -0.530 OA
ATOM     14  O   UNL d   1      75.215  72.751  89.992  0.00  0.00    -0.530 OA
ENDBRANCH   7  12
ENDBRANCH   5   6
ENDBRANCH   1   5
TORSDOF 3
ENDMDL
MODEL 13
REMARK VINA RESULT:      -4.3     15.211     16.508
REMARK  3 active torsions:
REMARK  status: ('A' for Active; 'I' for Inactive)
REMARK    1  A    between atoms: N_1  and  C_10 
REMARK    2  A    between atoms: C_2  and  N_7 
REMARK    3  A    between atoms: C_10  and  C_11 
ROOT
ATOM      1  C   UNL d   1      78.190  67.829  90.981  0.00  0.00     0.292 C 
ATOM      2  C   UNL d   1      78.641  66.506  91.206  0.00  0.00     0.019 C 
ATOM      3 CL   UNL d   1      79.192  64.858  91.467  0.00  0.00    -0.027 Cl
ATOM      4  O   UNL d   1      78.390  68.686  91.866  0.00  0.00    -0.267 OA
ENDROOT
BRANCH   1   5
ATOM      5  C   UNL d   1      77.522  68.261  89.815  0.00  0.00     0.034 C 
BRANCH   5   6
ATOM      6  N   UNL d   1      76.852  68.720  88.640  0.00  0.00    -0.237 N 
ATOM      7  C   UNL d   1      77.082  68.364  87.340  0.00  0.00     0.220 A 
ATOM      8  C   UNL d   1      76.191  69.068  86.575  0.00  0.00     0.143 A 
ATOM      9  N   UNL d   1      75.404  69.861  87.361  0.00  0.00    -0.227 NA
ATOM     10  C   UNL d   1      75.815  69.638  88.598  0.00  0.00     0.133 A 
ATOM     11  C   UNL d   1      75.154  70.362  89.746  0.00  0.00     0.073 C 
BRANCH   7  12
ATOM     12  N   UNL d   1      78.048  67.448  86.875  0.00  0.00    -0.094 N 
ATOM     13  O   UNL d   1      78.714  67.825  85.899  0.00  0.00    -0.530 OA
ATOM     14  O   UNL d   1      78.175  66.363  87.439  0.00  0.00    -0.530 OA
ENDBRANCH   7  12
ENDBRANCH   5   6
ENDBRANCH   1   5
TORSDOF 3
ENDMDL
MODEL 14
REMARK VINA RESULT:      -4.2     20.443     21.676
REMARK  3 active torsions:
REMARK  status: ('A' for Active; 'I' for Inactive)
REMARK    1  A    between atoms: N_1  and  C_10 
REMARK    2  A    between atoms: C_2  and  N_7 
REMARK    3  A    between atoms: C_10  and  C_11 
ROOT
ATOM      1  C   UNL d   1      60.870  88.424  93.184  0.00  0.00     0.292 C 
ATOM      2  C   UNL d   1      60.333  87.552  94.162  0.00  0.00     0.019 C 
ATOM      3 CL   UNL d   1      59.683  86.475  95.388  0.00  0.00    -0.027 Cl
ATOM      4  O   UNL d   1      60.329  88.465  92.060  0.00  0.00    -0.267 OA
ENDROOT
BRANCH   1   5
ATOM      5  C   UNL d   1      61.986  89.264  93.385  0.00  0.00     0.034 C 
BRANCH   5   6
ATOM      6  N   UNL d   1      63.112  90.124  93.569  0.00  0.00    -0.237 N 
ATOM      7  C   UNL d   1      64.020  90.541  92.635  0.00  0.00     0.220 A 
ATOM      8  C   UNL d   1      64.913  91.350  93.287  0.00  0.00     0.143 A 
ATOM      9  N   UNL d   1      64.590  91.453  94.610  0.00  0.00    -0.227 NA
ATOM     10  C   UNL d   1      63.506  90.710  94.761  0.00  0.00     0.133 A 
ATOM     11  C   UNL d   1      62.865  90.593  96.123  0.00  0.00     0.073 C 
BRANCH   7  12
ATOM     12  N   UNL d   1      64.036  90.205  91.266  0.00  0.00    -0.094 N 
ATOM     13  O   UNL d   1      63.682  91.106  90.491  0.00  0.00    -0.530 OA
ATOM     14  O   UNL d   1      64.386  89.078  90.923  0.00  0.00    -0.530 OA
ENDBRANCH   7  12
ENDBRANCH   5   6
ENDBRANCH   1   5
TORSDOF 3
ENDMDL
MODEL 15
REMARK VINA RESULT:      -4.2     13.239     14.720
REMARK  3 active torsions:
REMARK  status: ('A' for Active; 'I' for Inactive)
REMARK    1  A    between atoms: N_1  and  C_10 
REMARK    2  A    between atoms: C_2  and  N_7 
REMARK    3  A    between atoms: C_10  and  C_11 
ROOT
ATOM      1  C   UNL d   1      77.440  72.415  88.907  0.00  0.00     0.292 C 
ATOM      2  C   UNL d   1      76.384  73.072  89.584  0.00  0.00     0.019 C 
ATOM      3 CL   UNL d   1      75.065  73.868  90.428  0.00  0.00    -0.027 Cl
ATOM      4  O   UNL d   1      78.326  73.109  88.367  0.00  0.00    -0.267 OA
ENDROOT
BRANCH   1   5
ATOM      5  C   UNL d   1      77.572  71.014  88.794  0.00  0.00     0.034 C 
BRANCH   5   6
ATOM      6  N   UNL d   1      77.694  69.593  88.700  0.00  0.00    -0.237 N 
ATOM      7  C   UNL d   1      78.520  68.766  89.409  0.00  0.00     0.220 A 
ATOM      8  C   UNL d   1      78.279  67.494  88.966  0.00  0.00     0.143 A 
ATOM      9  N   UNL d   1      77.320  67.497  87.993  0.00  0.00    -0.227 NA
ATOM     10  C   UNL d   1      76.981  68.767  87.847  0.00  0.00     0.133 A 
ATOM     11  C   UNL d   1      75.927  69.147  86.835  0.00  0.00     0.073 C 
BRANCH   7  12
ATOM     12  N   UNL d   1      79.442  69.147  90.406  0.00  0.00    -0.094 N 
ATOM     13  O   UNL d   1      78.998  69.171  91.563  0.00  0.00    -0.530 OA
ATOM     14  O   UNL d   1      80.596  69.427  90.087  0.00  0.00    -0.530 OA
ENDBRANCH   7  12
ENDBRANCH   5   6
ENDBRANCH   1   5
TORSDOF 3
ENDMDL
MODEL 16
REMARK VINA RESULT:      -4.2     19.520     20.915
REMARK  3 active torsions:
REMARK  status: ('A' for Active; 'I' for Inactive)
REMARK    1  A    between atoms: N_1  and  C_10 
REMARK    2  A    between atoms: C_2  and  N_7 
REMARK    3  A    between atoms: C_10  and  C_11 
ROOT
ATOM      1  C   UNL d   1      63.972  88.008  91.159  0.00  0.00     0.292 C 
ATOM      2  C   UNL d   1      65.038  87.092  91.328  0.00  0.00     0.019 C 
ATOM      3 CL   UNL d   1      66.364  85.962  91.558  0.00  0.00    -0.027 Cl
ATOM      4  O   UNL d   1      63.377  88.036  90.062  0.00  0.00    -0.267 OA
ENDROOT
BRANCH   1   5
ATOM      5  C   UNL d   1      63.522  88.906  92.151  0.00  0.00     0.034 C 
BRANCH   5   6
ATOM      6  N   UNL d   1      63.054  89.826  93.139  0.00  0.00    -0.237 N 
ATOM      7  C   UNL d   1      61.858  89.821  93.801  0.00  0.00     0.220 A 
ATOM      8  C   UNL d   1      61.870  90.899  94.645  0.00  0.00     0.143 A 
ATOM      9  N   UNL d   1      63.045  91.586  94.530  0.00  0.00    -0.227 NA
ATOM     10  C   UNL d   1      63.743  90.927  93.621  0.00  0.00     0.133 A 
ATOM     11  C   UNL d   1      65.119  91.415  93.237  0.00  0.00     0.073 C 
BRANCH   7  12
ATOM     12  N   UNL d   1      60.813  88.886  93.649  0.00  0.00    -0.094 N 
ATOM     13  O   UNL d   1      60.887  87.881  94.369  0.00  0.00    -0.530 OA
ATOM     14  O   UNL d   1      59.916  89.109  92.837  0.00  0.00    -0.530 OA
ENDBRANCH   7  12
ENDBRANCH   5   6
ENDBRANCH   1   5
TORSDOF 3
ENDMDL
MODEL 17
REMARK VINA RESULT:      -4.2      3.399      4.872
REMARK  3 active torsions:
REMARK  status: ('A' for Active; 'I' for Inactive)
REMARK    1  A    between atoms: N_1  and  C_10 
REMARK    2  A    between atoms: C_2  and  N_7 
REMARK    3  A    between atoms: C_10  and  C_11 
ROOT
ATOM      1  C   UNL d   1      78.047  83.540  97.417  0.00  0.00     0.292 C 
ATOM      2  C   UNL d   1      78.581  84.812  97.736  0.00  0.00     0.019 C 
ATOM      3 CL   UNL d   1      79.262  86.383  98.131  0.00  0.00    -0.027 Cl
ATOM      4  O   UNL d   1      76.809  83.389  97.437  0.00  0.00    -0.267 OA
ENDROOT
BRANCH   1   5
ATOM      5  C   UNL d   1      78.820  82.410  97.071  0.00  0.00     0.034 C 
BRANCH   5   6
ATOM      6  N   UNL d   1      79.605  81.262  96.743  0.00  0.00    -0.237 N 
ATOM      7  C   UNL d   1      80.965  81.133  96.760  0.00  0.00     0.220 A 
ATOM      8  C   UNL d   1      81.245  79.852  96.367  0.00  0.00     0.143 A 
ATOM      9  N   UNL d   1      80.093  79.168  96.101  0.00  0.00    -0.227 NA
ATOM     10  C   UNL d   1      79.118  80.031  96.332  0.00  0.00     0.133 A 
ATOM     11  C   UNL d   1      77.682  79.607  96.135  0.00  0.00     0.073 C 
BRANCH   7  12
ATOM     12  N   UNL d   1      81.902  82.125  97.115  0.00  0.00    -0.094 N 
ATOM     13  O   UNL d   1      82.762  82.378  96.259  0.00  0.00    -0.530 OA
ATOM     14  O   UNL d   1      81.821  82.668  98.215  0.00  0.00    -0.530 OA
ENDBRANCH   7  12
ENDBRANCH   5   6
ENDBRANCH   1   5
TORSDOF 3
ENDMDL
MODEL 18
REMARK VINA RESULT:      -4.2     18.966     20.706
REMARK  3 active torsions:
REMARK  status: ('A' for Active; 'I' for Inactive)
REMARK    1  A    between atoms: N_1  and  C_10 
REMARK    2  A    between atoms: C_2  and  N_7 
REMARK    3  A    between atoms: C_10  and  C_11 
ROOT
ATOM      1  C   UNL d   1      63.815  87.913  91.152  0.00  0.00     0.292 C 
ATOM      2  C   UNL d   1      64.971  87.120  91.352  0.00  0.00     0.019 C 
ATOM      3 CL   UNL d   1      66.406  86.143  91.620  0.00  0.00    -0.027 Cl
ATOM      4  O   UNL d   1      63.319  87.967  90.008  0.00  0.00    -0.267 OA
ENDROOT
BRANCH   1   5
ATOM      5  C   UNL d   1      63.169  88.658  92.162  0.00  0.00     0.034 C 
BRANCH   5   6
ATOM      6  N   UNL d   1      62.525  89.398  93.201  0.00  0.00    -0.237 N 
ATOM      7  C   UNL d   1      63.010  90.462  93.908  0.00  0.00     0.220 A 
ATOM      8  C   UNL d   1      62.030  90.829  94.792  0.00  0.00     0.143 A 
ATOM      9  N   UNL d   1      60.937  90.020  94.659  0.00  0.00    -0.227 NA
ATOM     10  C   UNL d   1      61.253  89.167  93.699  0.00  0.00     0.133 A 
ATOM     11  C   UNL d   1      60.259  88.110  93.283  0.00  0.00     0.073 C 
BRANCH   7  12
ATOM     12  N   UNL d   1      64.275  91.069  93.759  0.00  0.00    -0.094 N 
ATOM     13  O   UNL d   1      64.306  92.062  93.018  0.00  0.00    -0.530 OA
ATOM     14  O   UNL d   1      65.245  90.597  94.348  0.00  0.00    -0.530 OA
ENDBRANCH   7  12
ENDBRANCH   5   6
ENDBRANCH   1   5
TORSDOF 3
ENDMDL
MODEL 19
REMARK VINA RESULT:      -4.2     19.327     21.003
REMARK  3 active torsions:
REMARK  status: ('A' for Active; 'I' for Inactive)
REMARK    1  A    between atoms: N_1  and  C_10 
REMARK    2  A    between atoms: C_2  and  N_7 
REMARK    3  A    between atoms: C_10  and  C_11 
ROOT
ATOM      1  C   UNL d   1      61.017  88.139  92.459  0.00  0.00     0.292 C 
ATOM      2  C   UNL d   1      60.633  86.894  91.904  0.00  0.00     0.019 C 
ATOM      3 CL   UNL d   1      60.176  85.344  91.214  0.00  0.00    -0.027 Cl
ATOM      4  O   UNL d   1      60.126  88.961  92.754  0.00  0.00    -0.267 OA
ENDROOT
BRANCH   1   5
ATOM      5  C   UNL d   1      62.351  88.527  92.710  0.00  0.00     0.034 C 
BRANCH   5   6
ATOM      6  N   UNL d   1      63.708  88.900  92.958  0.00  0.00    -0.237 N 
ATOM      7  C   UNL d   1      64.200  90.129  93.296  0.00  0.00     0.220 A 
ATOM      8  C   UNL d   1      65.556  89.990  93.426  0.00  0.00     0.143 A 
ATOM      9  N   UNL d   1      65.932  88.701  93.176  0.00  0.00    -0.227 NA
ATOM     10  C   UNL d   1      64.809  88.061  92.897  0.00  0.00     0.133 A 
ATOM     11  C   UNL d   1      64.851  86.588  92.565  0.00  0.00     0.073 C 
BRANCH   7  12
ATOM     12  N   UNL d   1      63.457  91.314  93.479  0.00  0.00    -0.094 N 
ATOM     13  O   UNL d   1      63.313  91.678  94.655  0.00  0.00    -0.530 OA
ATOM     14  O   UNL d   1      63.006  91.903  92.498  0.00  0.00    -0.530 OA
ENDBRANCH   7  12
ENDBRANCH   5   6
ENDBRANCH   1   5
TORSDOF 3
ENDMDL
MODEL 20
REMARK VINA RESULT:      -4.1     14.160     15.567
REMARK  3 active torsions:
REMARK  status: ('A' for Active; 'I' for Inactive)
REMARK    1  A    between atoms: N_1  and  C_10 
REMARK    2  A    between atoms: C_2  and  N_7 
REMARK    3  A    between atoms: C_10  and  C_11 
ROOT
ATOM      1  C   UNL d   1      78.755  67.782  89.611  0.00  0.00     0.292 C 
ATOM      2  C   UNL d   1      78.344  66.517  89.125  0.00  0.00     0.019 C 
ATOM      3 CL   UNL d   1      77.819  64.956  88.512  0.00  0.00    -0.027 Cl
ATOM      4  O   UNL d   1      79.701  67.831  90.423  0.00  0.00    -0.267 OA
ENDROOT
BRANCH   1   5
ATOM      5  C   UNL d   1      78.168  69.011  89.241  0.00  0.00     0.034 C 
BRANCH   5   6
ATOM      6  N   UNL d   1      77.561  70.245  88.852  0.00  0.00    -0.237 N 
ATOM      7  C   UNL d   1      76.672  70.468  87.837  0.00  0.00     0.220 A 
ATOM      8  C   UNL d   1      76.379  71.805  87.856  0.00  0.00     0.143 A 
ATOM      9  N   UNL d   1      77.064  72.433  88.858  0.00  0.00    -0.227 NA
ATOM     10  C   UNL d   1      77.767  71.479  89.445  0.00  0.00     0.133 A 
ATOM     11  C   UNL d   1      78.657  71.822  90.616  0.00  0.00     0.073 C 
BRANCH   7  12
ATOM     12  N   UNL d   1      76.153  69.508  86.944  0.00  0.00    -0.094 N 
ATOM     13  O   UNL d   1      74.996  69.131  87.178  0.00  0.00    -0.530 OA
ATOM     14  O   UNL d   1      76.851  69.108  86.013  0.00  0.00    -0.530 OA
ENDBRANCH   7  12
ENDBRANCH   5   6
ENDBRANCH   1   5
TORSDOF 3
ENDMDL
