MODEL 1
REMARK VINA RESULT:      -1.3      0.000      0.000
REMARK  4 active torsions:
REMARK  status: ('A' for Active; 'I' for Inactive)
REMARK    1  A    between atoms: C_3  and  C_13 
REMARK    2  A    between atoms: C_4  and  C_7 
REMARK       I    between atoms: C_13  and  N_15 
REMARK    3  A    between atoms: CA_16  and  N_15 
REMARK    4  A    between atoms: CA_21  and  C_26 
ROOT
ATOM      1 NA   UNL d   2      69.550  64.477  88.011  0.00  0.00     0.000 Na
ENDROOT
TORSDOF 4
ENDMDL
MODEL 2
REMARK VINA RESULT:      -1.2     19.835     19.835
REMARK  4 active torsions:
REMARK  status: ('A' for Active; 'I' for Inactive)
REMARK    1  A    between atoms: C_3  and  C_13 
REMARK    2  A    between atoms: C_4  and  C_7 
REMARK       I    between atoms: C_13  and  N_15 
REMARK    3  A    between atoms: CA_16  and  N_15 
REMARK    4  A    between atoms: CA_21  and  C_26 
ROOT
ATOM      1 NA   UNL d   2      65.876  80.050  76.288  0.00  0.00     0.000 Na
ENDROOT
TORSDOF 4
ENDMDL
MODEL 3
REMARK VINA RESULT:      -1.2      8.733      8.733
REMARK  4 active torsions:
REMARK  status: ('A' for Active; 'I' for Inactive)
REMARK    1  A    between atoms: C_3  and  C_13 
REMARK    2  A    between atoms: C_4  and  C_7 
REMARK       I    between atoms: C_13  and  N_15 
REMARK    3  A    between atoms: CA_16  and  N_15 
REMARK    4  A    between atoms: CA_21  and  C_26 
ROOT
ATOM      1 NA   UNL d   2      66.580  60.187  81.009  0.00  0.00     0.000 Na
ENDROOT
TORSDOF 4
ENDMDL
MODEL 4
REMARK VINA RESULT:      -1.2     16.299     16.299
REMARK  4 active torsions:
REMARK  status: ('A' for Active; 'I' for Inactive)
REMARK    1  A    between atoms: C_3  and  C_13 
REMARK    2  A    between atoms: C_4  and  C_7 
REMARK       I    between atoms: C_13  and  N_15 
REMARK    3  A    between atoms: CA_16  and  N_15 
REMARK    4  A    between atoms: CA_21  and  C_26 
ROOT
ATOM      1 NA   UNL d   2      55.005  63.125  95.242  0.00  0.00     0.000 Na
ENDROOT
TORSDOF 4
ENDMDL
MODEL 5
REMARK VINA RESULT:      -1.2     26.166     26.166
REMARK  4 active torsions:
REMARK  status: ('A' for Active; 'I' for Inactive)
REMARK    1  A    between atoms: C_3  and  C_13 
REMARK    2  A    between atoms: C_4  and  C_7 
REMARK       I    between atoms: C_13  and  N_15 
REMARK    3  A    between atoms: CA_16  and  N_15 
REMARK    4  A    between atoms: CA_21  and  C_26 
ROOT
ATOM      1 NA   UNL d   2      80.997  87.438  93.153  0.00  0.00     0.000 Na
ENDROOT
TORSDOF 4
ENDMDL
MODEL 6
REMARK VINA RESULT:      -1.1     18.292     18.292
REMARK  4 active torsions:
REMARK  status: ('A' for Active; 'I' for Inactive)
REMARK    1  A    between atoms: C_3  and  C_13 
REMARK    2  A    between atoms: C_4  and  C_7 
REMARK       I    between atoms: C_13  and  N_15 
REMARK    3  A    between atoms: CA_16  and  N_15 
REMARK    4  A    between atoms: CA_21  and  C_26 
ROOT
ATOM      1 NA   UNL d   2      61.014  79.652  82.403  0.00  0.00     0.000 Na
ENDROOT
TORSDOF 4
ENDMDL
MODEL 7
REMARK VINA RESULT:      -1.1     18.443     18.443
REMARK  4 active torsions:
REMARK  status: ('A' for Active; 'I' for Inactive)
REMARK    1  A    between atoms: C_3  and  C_13 
REMARK    2  A    between atoms: C_4  and  C_7 
REMARK       I    between atoms: C_13  and  N_15 
REMARK    3  A    between atoms: CA_16  and  N_15 
REMARK    4  A    between atoms: CA_21  and  C_26 
ROOT
ATOM      1 NA   UNL d   2      62.771  79.516  79.761  0.00  0.00     0.000 Na
ENDROOT
TORSDOF 4
ENDMDL
MODEL 8
REMARK VINA RESULT:      -1.1      2.310      2.310
REMARK  4 active torsions:
REMARK  status: ('A' for Active; 'I' for Inactive)
REMARK    1  A    between atoms: C_3  and  C_13 
REMARK    2  A    between atoms: C_4  and  C_7 
REMARK       I    between atoms: C_13  and  N_15 
REMARK    3  A    between atoms: CA_16  and  N_15 
REMARK    4  A    between atoms: CA_21  and  C_26 
ROOT
ATOM      1 NA   UNL d   2      67.631  65.088  89.144  0.00  0.00     0.000 Na
ENDROOT
TORSDOF 4
ENDMDL
MODEL 9
REMARK VINA RESULT:      -1.1     11.732     11.732
REMARK  4 active torsions:
REMARK  status: ('A' for Active; 'I' for Inactive)
REMARK    1  A    between atoms: C_3  and  C_13 
REMARK    2  A    between atoms: C_4  and  C_7 
REMARK       I    between atoms: C_13  and  N_15 
REMARK    3  A    between atoms: CA_16  and  N_15 
REMARK    4  A    between atoms: CA_21  and  C_26 
ROOT
ATOM      1 NA   UNL d   2      57.964  66.307  88.272  0.00  0.00     0.000 Na
ENDROOT
TORSDOF 4
ENDMDL
MODEL 10
REMARK VINA RESULT:      -1.1     19.074     19.074
REMARK  4 active torsions:
REMARK  status: ('A' for Active; 'I' for Inactive)
REMARK    1  A    between atoms: C_3  and  C_13 
REMARK    2  A    between atoms: C_4  and  C_7 
REMARK       I    between atoms: C_13  and  N_15 
REMARK    3  A    between atoms: CA_16  and  N_15 
REMARK    4  A    between atoms: CA_21  and  C_26 
ROOT
ATOM      1 NA   UNL d   2      55.087  76.897  88.637  0.00  0.00     0.000 Na
ENDROOT
TORSDOF 4
ENDMDL
MODEL 11
REMARK VINA RESULT:      -1.0      6.728      6.728
REMARK  4 active torsions:
REMARK  status: ('A' for Active; 'I' for Inactive)
REMARK    1  A    between atoms: C_3  and  C_13 
REMARK    2  A    between atoms: C_4  and  C_7 
REMARK       I    between atoms: C_13  and  N_15 
REMARK    3  A    between atoms: CA_16  and  N_15 
REMARK    4  A    between atoms: CA_21  and  C_26 
ROOT
ATOM      1 NA   UNL d   2      73.062  69.679  85.589  0.00  0.00     0.000 Na
ENDROOT
TORSDOF 4
ENDMDL
MODEL 12
REMARK VINA RESULT:      -1.0     29.091     29.091
REMARK  4 active torsions:
REMARK  status: ('A' for Active; 'I' for Inactive)
REMARK    1  A    between atoms: C_3  and  C_13 
REMARK    2  A    between atoms: C_4  and  C_7 
REMARK       I    between atoms: C_13  and  N_15 
REMARK    3  A    between atoms: CA_16  and  N_15 
REMARK    4  A    between atoms: CA_21  and  C_26 
ROOT
ATOM      1 NA   UNL d   2      58.790  90.414  80.407  0.00  0.00     0.000 Na
ENDROOT
TORSDOF 4
ENDMDL
MODEL 13
REMARK VINA RESULT:      -1.0     29.592     29.592
REMARK  4 active torsions:
REMARK  status: ('A' for Active; 'I' for Inactive)
REMARK    1  A    between atoms: C_3  and  C_13 
REMARK    2  A    between atoms: C_4  and  C_7 
REMARK       I    between atoms: C_13  and  N_15 
REMARK    3  A    between atoms: CA_16  and  N_15 
REMARK    4  A    between atoms: CA_21  and  C_26 
ROOT
ATOM      1 NA   UNL d   2      67.017  91.596  76.442  0.00  0.00     0.000 Na
ENDROOT
TORSDOF 4
ENDMDL
MODEL 14
REMARK VINA RESULT:      -0.9     12.198     12.198
REMARK  4 active torsions:
REMARK  status: ('A' for Active; 'I' for Inactive)
REMARK    1  A    between atoms: C_3  and  C_13 
REMARK    2  A    between atoms: C_4  and  C_7 
REMARK       I    between atoms: C_13  and  N_15 
REMARK    3  A    between atoms: CA_16  and  N_15 
REMARK    4  A    between atoms: CA_21  and  C_26 
ROOT
ATOM      1 NA   UNL d   2      71.980  72.450  79.105  0.00  0.00     0.000 Na
ENDROOT
TORSDOF 4
ENDMDL
MODEL 15
REMARK VINA RESULT:      -0.9      3.634      3.634
REMARK  4 active torsions:
REMARK  status: ('A' for Active; 'I' for Inactive)
REMARK    1  A    between atoms: C_3  and  C_13 
REMARK    2  A    between atoms: C_4  and  C_7 
REMARK       I    between atoms: C_13  and  N_15 
REMARK    3  A    between atoms: CA_16  and  N_15 
REMARK    4  A    between atoms: CA_21  and  C_26 
ROOT
ATOM      1 NA   UNL d   2      66.910  65.511  85.737  0.00  0.00     0.000 Na
ENDROOT
TORSDOF 4
ENDMDL
MODEL 16
REMARK VINA RESULT:      -0.9     10.876     10.876
REMARK  4 active torsions:
REMARK  status: ('A' for Active; 'I' for Inactive)
REMARK    1  A    between atoms: C_3  and  C_13 
REMARK    2  A    between atoms: C_4  and  C_7 
REMARK       I    between atoms: C_13  and  N_15 
REMARK    3  A    between atoms: CA_16  and  N_15 
REMARK    4  A    between atoms: CA_21  and  C_26 
ROOT
ATOM      1 NA   UNL d   2      75.338  70.272  80.856  0.00  0.00     0.000 Na
ENDROOT
TORSDOF 4
ENDMDL
MODEL 17
REMARK VINA RESULT:      -0.9      9.958      9.958
REMARK  4 active torsions:
REMARK  status: ('A' for Active; 'I' for Inactive)
REMARK    1  A    between atoms: C_3  and  C_13 
REMARK    2  A    between atoms: C_4  and  C_7 
REMARK       I    between atoms: C_13  and  N_15 
REMARK    3  A    between atoms: CA_16  and  N_15 
REMARK    4  A    between atoms: CA_21  and  C_26 
ROOT
ATOM      1 NA   UNL d   2      59.620  64.184  88.709  0.00  0.00     0.000 Na
ENDROOT
TORSDOF 4
ENDMDL
MODEL 18
REMARK VINA RESULT:      -0.9     21.548     21.548
REMARK  4 active torsions:
REMARK  status: ('A' for Active; 'I' for Inactive)
REMARK    1  A    between atoms: C_3  and  C_13 
REMARK    2  A    between atoms: C_4  and  C_7 
REMARK       I    between atoms: C_13  and  N_15 
REMARK    3  A    between atoms: CA_16  and  N_15 
REMARK    4  A    between atoms: CA_21  and  C_26 
ROOT
ATOM      1 NA   UNL d   2      54.302  79.699  87.633  0.00  0.00     0.000 Na
ENDROOT
TORSDOF 4
ENDMDL
MODEL 19
REMARK VINA RESULT:      -0.9     11.339     11.339
REMARK  4 active torsions:
REMARK  status: ('A' for Active; 'I' for Inactive)
REMARK    1  A    between atoms: C_3  and  C_13 
REMARK    2  A    between atoms: C_4  and  C_7 
REMARK       I    between atoms: C_13  and  N_15 
REMARK    3  A    between atoms: CA_16  and  N_15 
REMARK    4  A    between atoms: CA_21  and  C_26 
ROOT
ATOM      1 NA   UNL d   2      63.160  73.838  87.650  0.00  0.00     0.000 Na
ENDROOT
TORSDOF 4
ENDMDL
MODEL 20
REMARK VINA RESULT:      -0.8     27.642     27.642
REMARK  4 active torsions:
REMARK  status: ('A' for Active; 'I' for Inactive)
REMARK    1  A    between atoms: C_3  and  C_13 
REMARK    2  A    between atoms: C_4  and  C_7 
REMARK       I    between atoms: C_13  and  N_15 
REMARK    3  A    between atoms: CA_16  and  N_15 
REMARK    4  A    between atoms: CA_21  and  C_26 
ROOT
ATOM      1 NA   UNL d   2      67.585  92.045  87.517  0.00  0.00     0.000 Na
ENDROOT
TORSDOF 4
ENDMDL
