MODEL 1
REMARK VINA RESULT:      -1.1      0.000      0.000
REMARK  1 active torsions:
REMARK  status: ('A' for Active; 'I' for Inactive)
REMARK    1  A    between atoms: C_16  and  N_4 
ROOT
ATOM      1 CL   UNL d   1      67.206  88.740  77.744  0.00  0.00     0.000 Cl
ENDROOT
TORSDOF 1
ENDMDL
MODEL 2
REMARK VINA RESULT:      -1.1     16.649     16.649
REMARK  1 active torsions:
REMARK  status: ('A' for Active; 'I' for Inactive)
REMARK    1  A    between atoms: C_16  and  N_4 
ROOT
ATOM      1 CL   UNL d   1      79.243  78.208  82.364  0.00  0.00     0.000 Cl
ENDROOT
TORSDOF 1
ENDMDL
MODEL 3
REMARK VINA RESULT:      -0.9     29.525     29.525
REMARK  1 active torsions:
REMARK  status: ('A' for Active; 'I' for Inactive)
REMARK    1  A    between atoms: C_16  and  N_4 
ROOT
ATOM      1 CL   UNL d   1      56.591  63.066  87.736  0.00  0.00     0.000 Cl
ENDROOT
TORSDOF 1
ENDMDL
MODEL 4
REMARK VINA RESULT:      -0.9     38.735     38.735
REMARK  1 active torsions:
REMARK  status: ('A' for Active; 'I' for Inactive)
REMARK    1  A    between atoms: C_16  and  N_4 
ROOT
ATOM      1 CL   UNL d   1      73.499  58.604 101.251  0.00  0.00     0.000 Cl
ENDROOT
TORSDOF 1
ENDMDL
MODEL 5
REMARK VINA RESULT:      -0.9     19.389     19.389
REMARK  1 active torsions:
REMARK  status: ('A' for Active; 'I' for Inactive)
REMARK    1  A    between atoms: C_16  and  N_4 
ROOT
ATOM      1 CL   UNL d   1      57.094  74.249  85.723  0.00  0.00     0.000 Cl
ENDROOT
TORSDOF 1
ENDMDL
MODEL 6
REMARK VINA RESULT:      -0.9     17.465     17.465
REMARK  1 active torsions:
REMARK  status: ('A' for Active; 'I' for Inactive)
REMARK    1  A    between atoms: C_16  and  N_4 
ROOT
ATOM      1 CL   UNL d   1      78.116  76.729  84.204  0.00  0.00     0.000 Cl
ENDROOT
TORSDOF 1
ENDMDL
MODEL 7
REMARK VINA RESULT:      -0.9     26.789     26.789
REMARK  1 active torsions:
REMARK  status: ('A' for Active; 'I' for Inactive)
REMARK    1  A    between atoms: C_16  and  N_4 
ROOT
ATOM      1 CL   UNL d   1      86.281  80.978  94.876  0.00  0.00     0.000 Cl
ENDROOT
TORSDOF 1
ENDMDL
MODEL 8
REMARK VINA RESULT:      -0.9     27.087     27.087
REMARK  1 active torsions:
REMARK  status: ('A' for Active; 'I' for Inactive)
REMARK    1  A    between atoms: C_16  and  N_4 
ROOT
ATOM      1 CL   UNL d   1      84.881  82.611  97.332  0.00  0.00     0.000 Cl
ENDROOT
TORSDOF 1
ENDMDL
MODEL 9
REMARK VINA RESULT:      -0.8     32.044     32.044
REMARK  1 active torsions:
REMARK  status: ('A' for Active; 'I' for Inactive)
REMARK    1  A    between atoms: C_16  and  N_4 
ROOT
ATOM      1 CL   UNL d   1      68.307  68.389 102.471  0.00  0.00     0.000 Cl
ENDROOT
TORSDOF 1
ENDMDL
MODEL 10
REMARK VINA RESULT:      -0.8     25.212     25.212
REMARK  1 active torsions:
REMARK  status: ('A' for Active; 'I' for Inactive)
REMARK    1  A    between atoms: C_16  and  N_4 
ROOT
ATOM      1 CL   UNL d   1      78.276  67.757  86.276  0.00  0.00     0.000 Cl
ENDROOT
TORSDOF 1
ENDMDL
MODEL 11
REMARK VINA RESULT:      -0.8     33.214     33.214
REMARK  1 active torsions:
REMARK  status: ('A' for Active; 'I' for Inactive)
REMARK    1  A    between atoms: C_16  and  N_4 
ROOT
ATOM      1 CL   UNL d   1      52.811  60.501  87.666  0.00  0.00     0.000 Cl
ENDROOT
TORSDOF 1
ENDMDL
MODEL 12
REMARK VINA RESULT:      -0.8     30.021     30.021
REMARK  1 active torsions:
REMARK  status: ('A' for Active; 'I' for Inactive)
REMARK    1  A    between atoms: C_16  and  N_4 
ROOT
ATOM      1 CL   UNL d   1      54.570  62.873  86.258  0.00  0.00     0.000 Cl
ENDROOT
TORSDOF 1
ENDMDL
MODEL 13
REMARK VINA RESULT:      -0.8     17.042     17.042
REMARK  1 active torsions:
REMARK  status: ('A' for Active; 'I' for Inactive)
REMARK    1  A    between atoms: C_16  and  N_4 
ROOT
ATOM      1 CL   UNL d   1      66.166  71.981  74.832  0.00  0.00     0.000 Cl
ENDROOT
TORSDOF 1
ENDMDL
MODEL 14
REMARK VINA RESULT:      -0.8     16.922     16.922
REMARK  1 active torsions:
REMARK  status: ('A' for Active; 'I' for Inactive)
REMARK    1  A    between atoms: C_16  and  N_4 
ROOT
ATOM      1 CL   UNL d   1      65.377  74.928  87.346  0.00  0.00     0.000 Cl
ENDROOT
TORSDOF 1
ENDMDL
MODEL 15
REMARK VINA RESULT:      -0.7     24.132     24.132
REMARK  1 active torsions:
REMARK  status: ('A' for Active; 'I' for Inactive)
REMARK    1  A    between atoms: C_16  and  N_4 
ROOT
ATOM      1 CL   UNL d   1      79.117  86.785  98.640  0.00  0.00     0.000 Cl
ENDROOT
TORSDOF 1
ENDMDL
MODEL 16
REMARK VINA RESULT:      -0.7     19.713     19.713
REMARK  1 active torsions:
REMARK  status: ('A' for Active; 'I' for Inactive)
REMARK    1  A    between atoms: C_16  and  N_4 
ROOT
ATOM      1 CL   UNL d   1      58.064  72.352  83.781  0.00  0.00     0.000 Cl
ENDROOT
TORSDOF 1
ENDMDL
MODEL 17
REMARK VINA RESULT:      -0.7     27.915     27.915
REMARK  1 active torsions:
REMARK  status: ('A' for Active; 'I' for Inactive)
REMARK    1  A    between atoms: C_16  and  N_4 
ROOT
ATOM      1 CL   UNL d   1      80.404  64.169  76.605  0.00  0.00     0.000 Cl
ENDROOT
TORSDOF 1
ENDMDL
MODEL 18
REMARK VINA RESULT:      -0.7     18.746     18.746
REMARK  1 active torsions:
REMARK  status: ('A' for Active; 'I' for Inactive)
REMARK    1  A    between atoms: C_16  and  N_4 
ROOT
ATOM      1 CL   UNL d   1      59.064  72.178  81.029  0.00  0.00     0.000 Cl
ENDROOT
TORSDOF 1
ENDMDL
MODEL 19
REMARK VINA RESULT:      -0.7     20.700     20.700
REMARK  1 active torsions:
REMARK  status: ('A' for Active; 'I' for Inactive)
REMARK    1  A    between atoms: C_16  and  N_4 
ROOT
ATOM      1 CL   UNL d   1      55.848  72.128  82.591  0.00  0.00     0.000 Cl
ENDROOT
TORSDOF 1
ENDMDL
