MODEL 1
REMARK VINA RESULT:      -1.3      0.000      0.000
REMARK  1 active torsions:
REMARK  status: ('A' for Active; 'I' for Inactive)
REMARK    1  A    between atoms: C_11  and  C_14 
ROOT
ATOM      1  K   UNL d   1      69.550  64.477  88.011  0.00  0.00     0.000 K 
ENDROOT
TORSDOF 1
ENDMDL
MODEL 2
REMARK VINA RESULT:      -1.2     28.518     28.518
REMARK  1 active torsions:
REMARK  status: ('A' for Active; 'I' for Inactive)
REMARK    1  A    between atoms: C_11  and  C_14 
ROOT
ATOM      1  K   UNL d   1      79.756  90.280  94.592  0.00  0.00     0.000 K 
ENDROOT
TORSDOF 1
ENDMDL
MODEL 3
REMARK VINA RESULT:      -1.2     19.835     19.835
REMARK  1 active torsions:
REMARK  status: ('A' for Active; 'I' for Inactive)
REMARK    1  A    between atoms: C_11  and  C_14 
ROOT
ATOM      1  K   UNL d   1      65.878  80.051  76.290  0.00  0.00     0.000 K 
ENDROOT
TORSDOF 1
ENDMDL
MODEL 4
REMARK VINA RESULT:      -1.2      8.733      8.733
REMARK  1 active torsions:
REMARK  status: ('A' for Active; 'I' for Inactive)
REMARK    1  A    between atoms: C_11  and  C_14 
ROOT
ATOM      1  K   UNL d   1      66.580  60.187  81.009  0.00  0.00     0.000 K 
ENDROOT
TORSDOF 1
ENDMDL
MODEL 5
REMARK VINA RESULT:      -1.2     16.299     16.299
REMARK  1 active torsions:
REMARK  status: ('A' for Active; 'I' for Inactive)
REMARK    1  A    between atoms: C_11  and  C_14 
ROOT
ATOM      1  K   UNL d   1      55.005  63.125  95.242  0.00  0.00     0.000 K 
ENDROOT
TORSDOF 1
ENDMDL
MODEL 6
REMARK VINA RESULT:      -1.1     18.292     18.292
REMARK  1 active torsions:
REMARK  status: ('A' for Active; 'I' for Inactive)
REMARK    1  A    between atoms: C_11  and  C_14 
ROOT
ATOM      1  K   UNL d   1      61.014  79.652  82.403  0.00  0.00     0.000 K 
ENDROOT
TORSDOF 1
ENDMDL
MODEL 7
REMARK VINA RESULT:      -1.1     18.446     18.446
REMARK  1 active torsions:
REMARK  status: ('A' for Active; 'I' for Inactive)
REMARK    1  A    between atoms: C_11  and  C_14 
ROOT
ATOM      1  K   UNL d   1      62.781  79.515  79.746  0.00  0.00     0.000 K 
ENDROOT
TORSDOF 1
ENDMDL
MODEL 8
REMARK VINA RESULT:      -1.1     11.634     11.634
REMARK  1 active torsions:
REMARK  status: ('A' for Active; 'I' for Inactive)
REMARK    1  A    between atoms: C_11  and  C_14 
ROOT
ATOM      1  K   UNL d   1      63.405  61.695  97.490  0.00  0.00     0.000 K 
ENDROOT
TORSDOF 1
ENDMDL
MODEL 9
REMARK VINA RESULT:      -1.0     18.945     18.945
REMARK  1 active torsions:
REMARK  status: ('A' for Active; 'I' for Inactive)
REMARK    1  A    between atoms: C_11  and  C_14 
ROOT
ATOM      1  K   UNL d   1      73.045  62.433 106.518  0.00  0.00     0.000 K 
ENDROOT
TORSDOF 1
ENDMDL
MODEL 10
REMARK VINA RESULT:      -1.0      6.728      6.728
REMARK  1 active torsions:
REMARK  status: ('A' for Active; 'I' for Inactive)
REMARK    1  A    between atoms: C_11  and  C_14 
ROOT
ATOM      1  K   UNL d   1      73.062  69.679  85.589  0.00  0.00     0.000 K 
ENDROOT
TORSDOF 1
ENDMDL
MODEL 11
REMARK VINA RESULT:      -1.0     17.045     17.045
REMARK  1 active torsions:
REMARK  status: ('A' for Active; 'I' for Inactive)
REMARK    1  A    between atoms: C_11  and  C_14 
ROOT
ATOM      1  K   UNL d   1      77.856  76.721  79.547  0.00  0.00     0.000 K 
ENDROOT
TORSDOF 1
ENDMDL
MODEL 12
REMARK VINA RESULT:      -1.0     27.036     27.036
REMARK  1 active torsions:
REMARK  status: ('A' for Active; 'I' for Inactive)
REMARK    1  A    between atoms: C_11  and  C_14 
ROOT
ATOM      1  K   UNL d   1      85.319  84.022  98.025  0.00  0.00     0.000 K 
ENDROOT
TORSDOF 1
ENDMDL
MODEL 13
REMARK VINA RESULT:      -1.0     20.793     20.793
REMARK  1 active torsions:
REMARK  status: ('A' for Active; 'I' for Inactive)
REMARK    1  A    between atoms: C_11  and  C_14 
ROOT
ATOM      1  K   UNL d   1      68.626  84.403  82.138  0.00  0.00     0.000 K 
ENDROOT
TORSDOF 1
ENDMDL
MODEL 14
REMARK VINA RESULT:      -1.0     24.083     24.083
REMARK  1 active torsions:
REMARK  status: ('A' for Active; 'I' for Inactive)
REMARK    1  A    between atoms: C_11  and  C_14 
ROOT
ATOM      1  K   UNL d   1      81.880  75.267 105.662  0.00  0.00     0.000 K 
ENDROOT
TORSDOF 1
ENDMDL
MODEL 15
REMARK VINA RESULT:      -1.0      6.741      6.741
REMARK  1 active torsions:
REMARK  status: ('A' for Active; 'I' for Inactive)
REMARK    1  A    between atoms: C_11  and  C_14 
ROOT
ATOM      1  K   UNL d   1      71.934  65.788  94.179  0.00  0.00     0.000 K 
ENDROOT
TORSDOF 1
ENDMDL
MODEL 16
REMARK VINA RESULT:      -1.0     31.613     31.613
REMARK  1 active torsions:
REMARK  status: ('A' for Active; 'I' for Inactive)
REMARK    1  A    between atoms: C_11  and  C_14 
ROOT
ATOM      1  K   UNL d   1      79.696  93.073  96.883  0.00  0.00     0.000 K 
ENDROOT
TORSDOF 1
ENDMDL
MODEL 17
REMARK VINA RESULT:      -0.9     22.024     22.024
REMARK  1 active torsions:
REMARK  status: ('A' for Active; 'I' for Inactive)
REMARK    1  A    between atoms: C_11  and  C_14 
ROOT
ATOM      1  K   UNL d   1      81.039  75.127 103.492  0.00  0.00     0.000 K 
ENDROOT
TORSDOF 1
ENDMDL
MODEL 18
REMARK VINA RESULT:      -0.9     31.209     31.209
REMARK  1 active torsions:
REMARK  status: ('A' for Active; 'I' for Inactive)
REMARK    1  A    between atoms: C_11  and  C_14 
ROOT
ATOM      1  K   UNL d   1      78.110  92.603  98.484  0.00  0.00     0.000 K 
ENDROOT
TORSDOF 1
ENDMDL
MODEL 19
REMARK VINA RESULT:      -0.9     17.424     17.424
REMARK  1 active torsions:
REMARK  status: ('A' for Active; 'I' for Inactive)
REMARK    1  A    between atoms: C_11  and  C_14 
ROOT
ATOM      1  K   UNL d   1      79.147  66.568  73.620  0.00  0.00     0.000 K 
ENDROOT
TORSDOF 1
ENDMDL
MODEL 20
REMARK VINA RESULT:      -0.9     21.598     21.598
REMARK  1 active torsions:
REMARK  status: ('A' for Active; 'I' for Inactive)
REMARK    1  A    between atoms: C_11  and  C_14 
ROOT
ATOM      1  K   UNL d   1      54.252  79.718  87.608  0.00  0.00     0.000 K 
ENDROOT
TORSDOF 1
ENDMDL
