MODEL 1
REMARK VINA RESULT:      -6.2      0.000      0.000
REMARK  3 active torsions:
REMARK  status: ('A' for Active; 'I' for Inactive)
REMARK    1  A    between atoms: N_9  and  C_10 
REMARK    2  A    between atoms: C_10  and  C_11 
REMARK    3  A    between atoms: C_11  and  C_12 
ROOT
ATOM      1  C   UNL d   1      76.754  81.042  92.236  0.00  0.00     0.230 C 
ATOM      2  C   UNL d   1      76.927  82.331  91.573  0.00  0.00     0.056 C 
ATOM      3  O   UNL d   1      77.051  83.557  90.928  0.00  0.00    -0.141 OA
ATOM      4  C   UNL d   1      75.478  80.345  92.067  0.00  0.00     0.056 C 
ATOM      5  O   UNL d   1      74.253  79.710  91.892  0.00  0.00    -0.141 OA
ENDROOT
BRANCH   1   6
ATOM      6  C   UNL d   1      77.788  80.492  93.108  0.00  0.00    -0.045 C 
BRANCH   6   7
ATOM      7  C   UNL d   1      78.948  80.015  94.099  0.00  0.00    -0.001 C 
BRANCH   7   8
ATOM      8  N   UNL d   1      80.168  79.796  94.908  0.00  0.00    -0.134 NA
ATOM      9  C   UNL d   1      80.555  80.811  95.899  0.00  0.00     0.161 A 
ATOM     10  C   UNL d   1      81.948  81.246  95.715  0.00  0.00     0.170 A 
ATOM     11  N   UNL d   1      79.901  81.124  97.041  0.00  0.00    -0.200 NA
ATOM     12  C   UNL d   1      82.611  82.084  96.766  0.00  0.00     0.302 A 
ATOM     13  N   UNL d   1      82.528  80.756  94.571  0.00  0.00    -0.223 NA
ATOM     14  N   UNL d   1      81.840  82.386  97.833  0.00  0.00    -0.174 NA
ATOM     15  O   UNL d   1      83.786  82.458  96.648  0.00  0.00    -0.263 OA
ATOM     16  C   UNL d   1      80.566  81.917  97.928  0.00  0.00     0.241 A 
ATOM     17  N   UNL d   1      79.851  82.277  99.118  0.00  0.00    -0.059 NA
ATOM     18  C   UNL d   1      81.388  79.958  94.131  0.00  0.00     0.166 C 
ENDBRANCH   7   8
ENDBRANCH   6   7
ENDBRANCH   1   6
TORSDOF 3
ENDMDL
MODEL 2
REMARK VINA RESULT:      -6.1      1.906      2.980
REMARK  3 active torsions:
REMARK  status: ('A' for Active; 'I' for Inactive)
REMARK    1  A    between atoms: N_9  and  C_10 
REMARK    2  A    between atoms: C_10  and  C_11 
REMARK    3  A    between atoms: C_11  and  C_12 
ROOT
ATOM      1  C   UNL d   1      76.690  81.472  92.232  0.00  0.00     0.230 C 
ATOM      2  C   UNL d   1      75.352  80.943  91.983  0.00  0.00     0.056 C 
ATOM      3  O   UNL d   1      74.075  80.462  91.709  0.00  0.00    -0.141 OA
ATOM      4  C   UNL d   1      77.207  82.494  91.322  0.00  0.00     0.056 C 
ATOM      5  O   UNL d   1      77.674  83.461  90.437  0.00  0.00    -0.141 OA
ENDROOT
BRANCH   1   6
ATOM      6  C   UNL d   1      77.524  80.948  93.310  0.00  0.00    -0.045 C 
BRANCH   6   7
ATOM      7  C   UNL d   1      78.428  80.255  94.431  0.00  0.00    -0.001 C 
BRANCH   7   8
ATOM      8  N   UNL d   1      79.276  79.878  95.584  0.00  0.00    -0.134 NA
ATOM      9  C   UNL d   1      78.913  80.365  96.923  0.00  0.00     0.161 A 
ATOM     10  C   UNL d   1      80.042  81.044  97.578  0.00  0.00     0.170 A 
ATOM     11  N   UNL d   1      77.831  80.010  97.652  0.00  0.00    -0.200 NA
ATOM     12  C   UNL d   1      79.958  81.392  99.033  0.00  0.00     0.302 A 
ATOM     13  N   UNL d   1      81.121  81.235  96.750  0.00  0.00    -0.223 NA
ATOM     14  N   UNL d   1      78.804  81.044  99.643  0.00  0.00    -0.174 NA
ATOM     15  O   UNL d   1      80.895  81.953  99.618  0.00  0.00    -0.263 OA
ATOM     16  C   UNL d   1      77.823  80.394  98.960  0.00  0.00     0.241 A 
ATOM     17  N   UNL d   1      76.655  80.048  99.717  0.00  0.00    -0.059 NA
ATOM     18  C   UNL d   1      80.558  80.566  95.581  0.00  0.00     0.166 C 
ENDBRANCH   7   8
ENDBRANCH   6   7
ENDBRANCH   1   6
TORSDOF 3
ENDMDL
MODEL 3
REMARK VINA RESULT:      -6.0      0.902      2.055
REMARK  3 active torsions:
REMARK  status: ('A' for Active; 'I' for Inactive)
REMARK    1  A    between atoms: N_9  and  C_10 
REMARK    2  A    between atoms: C_10  and  C_11 
REMARK    3  A    between atoms: C_11  and  C_12 
ROOT
ATOM      1  C   UNL d   1      76.634  81.117  92.349  0.00  0.00     0.230 C 
ATOM      2  C   UNL d   1      75.310  80.525  92.176  0.00  0.00     0.056 C 
ATOM      3  O   UNL d   1      74.041  79.990  91.979  0.00  0.00    -0.141 OA
ATOM      4  C   UNL d   1      76.965  82.307  91.566  0.00  0.00     0.056 C 
ATOM      5  O   UNL d   1      77.252  83.435  90.804  0.00  0.00    -0.141 OA
ENDROOT
BRANCH   1   6
ATOM      6  C   UNL d   1      77.632  80.500  93.219  0.00  0.00    -0.045 C 
BRANCH   6   7
ATOM      7  C   UNL d   1      78.791  79.941  94.166  0.00  0.00    -0.001 C 
BRANCH   7   8
ATOM      8  N   UNL d   1      80.042  79.546  94.852  0.00  0.00    -0.134 NA
ATOM      9  C   UNL d   1      80.860  80.585  95.494  0.00  0.00     0.161 A 
ATOM     10  C   UNL d   1      82.258  80.534  95.039  0.00  0.00     0.170 A 
ATOM     11  N   UNL d   1      80.538  81.314  96.587  0.00  0.00    -0.200 NA
ATOM     12  C   UNL d   1      83.302  81.339  95.750  0.00  0.00     0.302 A 
ATOM     13  N   UNL d   1      82.463  79.661  93.999  0.00  0.00    -0.223 NA
ATOM     14  N   UNL d   1      82.852  82.078  96.788  0.00  0.00    -0.174 NA
ATOM     15  O   UNL d   1      84.490  81.310  95.400  0.00  0.00    -0.263 OA
ATOM     16  C   UNL d   1      81.541  82.042  97.153  0.00  0.00     0.241 A 
ATOM     17  N   UNL d   1      81.183  82.843  98.287  0.00  0.00    -0.059 NA
ATOM     18  C   UNL d   1      81.092  79.166  93.920  0.00  0.00     0.166 C 
ENDBRANCH   7   8
ENDBRANCH   6   7
ENDBRANCH   1   6
TORSDOF 3
ENDMDL
MODEL 4
REMARK VINA RESULT:      -6.0      2.947      3.644
REMARK  3 active torsions:
REMARK  status: ('A' for Active; 'I' for Inactive)
REMARK    1  A    between atoms: N_9  and  C_10 
REMARK    2  A    between atoms: C_10  and  C_11 
REMARK    3  A    between atoms: C_11  and  C_12 
ROOT
ATOM      1  C   UNL d   1      75.911  82.314  92.555  0.00  0.00     0.230 C 
ATOM      2  C   UNL d   1      76.861  82.823  91.570  0.00  0.00     0.056 C 
ATOM      3  O   UNL d   1      77.736  83.304  90.601  0.00  0.00    -0.141 OA
ATOM      4  C   UNL d   1      74.601  81.864  92.081  0.00  0.00     0.056 C 
ATOM      5  O   UNL d   1      73.363  81.449  91.601  0.00  0.00    -0.141 OA
ENDROOT
BRANCH   1   6
ATOM      6  C   UNL d   1      76.219  82.321  93.982  0.00  0.00    -0.045 C 
BRANCH   6   7
ATOM      7  C   UNL d   1      76.502  82.209  95.551  0.00  0.00    -0.001 C 
BRANCH   7   8
ATOM      8  N   UNL d   1      76.703  81.826  96.966  0.00  0.00    -0.134 NA
ATOM      9  C   UNL d   1      78.054  81.466  97.421  0.00  0.00     0.161 A 
ATOM     10  C   UNL d   1      78.070  80.158  98.093  0.00  0.00     0.170 A 
ATOM     11  N   UNL d   1      79.120  82.290  97.534  0.00  0.00    -0.200 NA
ATOM     12  C   UNL d   1      79.291  79.722  98.844  0.00  0.00     0.302 A 
ATOM     13  N   UNL d   1      76.880  79.480  97.999  0.00  0.00    -0.223 NA
ATOM     14  N   UNL d   1      80.317  80.601  98.836  0.00  0.00    -0.174 NA
ATOM     15  O   UNL d   1      79.334  78.632  99.431  0.00  0.00    -0.263 OA
ATOM     16  C   UNL d   1      80.201  81.803  98.206  0.00  0.00     0.241 A 
ATOM     17  N   UNL d   1      81.342  82.667  98.287  0.00  0.00    -0.059 NA
ATOM     18  C   UNL d   1      76.151  80.515  97.272  0.00  0.00     0.166 C 
ENDBRANCH   7   8
ENDBRANCH   6   7
ENDBRANCH   1   6
TORSDOF 3
ENDMDL
MODEL 5
REMARK VINA RESULT:      -5.7     12.069     15.530
REMARK  3 active torsions:
REMARK  status: ('A' for Active; 'I' for Inactive)
REMARK    1  A    between atoms: N_9  and  C_10 
REMARK    2  A    between atoms: C_10  and  C_11 
REMARK    3  A    between atoms: C_11  and  C_12 
ROOT
ATOM      1  C   UNL d   1      71.348  74.996  91.019  0.00  0.00     0.230 C 
ATOM      2  C   UNL d   1      72.218  73.872  91.352  0.00  0.00     0.056 C 
ATOM      3  O   UNL d   1      73.080  72.821  91.649  0.00  0.00    -0.141 OA
ATOM      4  C   UNL d   1      71.884  76.052  90.160  0.00  0.00     0.056 C 
ATOM      5  O   UNL d   1      72.423  77.043  89.345  0.00  0.00    -0.141 OA
ENDROOT
BRANCH   1   6
ATOM      6  C   UNL d   1      70.007  75.111  91.586  0.00  0.00    -0.045 C 
BRANCH   6   7
ATOM      7  C   UNL d   1      68.505  75.305  92.097  0.00  0.00    -0.001 C 
BRANCH   7   8
ATOM      8  N   UNL d   1      67.050  75.288  92.369  0.00  0.00    -0.134 NA
ATOM      9  C   UNL d   1      66.384  73.997  92.596  0.00  0.00     0.161 A 
ATOM     10  C   UNL d   1      65.220  73.824  91.713  0.00  0.00     0.170 A 
ATOM     11  N   UNL d   1      66.551  73.170  93.653  0.00  0.00    -0.200 NA
ATOM     12  C   UNL d   1      64.264  72.696  91.955  0.00  0.00     0.302 A 
ATOM     13  N   UNL d   1      65.107  74.805  90.759  0.00  0.00    -0.223 NA
ATOM     14  N   UNL d   1      64.567  71.898  93.002  0.00  0.00    -0.174 NA
ATOM     15  O   UNL d   1      63.268  72.529  91.238  0.00  0.00    -0.263 OA
ATOM     16  C   UNL d   1      65.655  72.151  93.780  0.00  0.00     0.241 A 
ATOM     17  N   UNL d   1      65.863  71.255  94.880  0.00  0.00    -0.059 NA
ATOM     18  C   UNL d   1      66.259  75.592  91.187  0.00  0.00     0.166 C 
ENDBRANCH   7   8
ENDBRANCH   6   7
ENDBRANCH   1   6
TORSDOF 3
ENDMDL
MODEL 6
REMARK VINA RESULT:      -5.7     26.670     29.874
REMARK  3 active torsions:
REMARK  status: ('A' for Active; 'I' for Inactive)
REMARK    1  A    between atoms: N_9  and  C_10 
REMARK    2  A    between atoms: C_10  and  C_11 
REMARK    3  A    between atoms: C_11  and  C_12 
ROOT
ATOM      1  C   UNL d   1      58.749  72.745  81.714  0.00  0.00     0.230 C 
ATOM      2  C   UNL d   1      58.230  72.535  83.062  0.00  0.00     0.056 C 
ATOM      3  O   UNL d   1      57.763  72.364  84.362  0.00  0.00    -0.141 OA
ATOM      4  C   UNL d   1      59.900  73.633  81.549  0.00  0.00     0.056 C 
ATOM      5  O   UNL d   1      60.992  74.486  81.424  0.00  0.00    -0.141 OA
ENDROOT
BRANCH   1   6
ATOM      6  C   UNL d   1      58.098  72.153  80.549  0.00  0.00    -0.045 C 
BRANCH   6   7
ATOM      7  C   UNL d   1      57.274  71.567  79.311  0.00  0.00    -0.001 C 
BRANCH   7   8
ATOM      8  N   UNL d   1      56.770  70.946  78.066  0.00  0.00    -0.134 NA
ATOM      9  C   UNL d   1      56.928  69.495  77.879  0.00  0.00     0.161 A 
ATOM     10  C   UNL d   1      57.585  69.181  76.602  0.00  0.00     0.170 A 
ATOM     11  N   UNL d   1      56.307  68.514  78.573  0.00  0.00    -0.200 NA
ATOM     12  C   UNL d   1      57.616  67.765  76.110  0.00  0.00     0.302 A 
ATOM     13  N   UNL d   1      58.065  70.287  75.946  0.00  0.00    -0.223 NA
ATOM     14  N   UNL d   1      57.019  66.862  76.917  0.00  0.00    -0.174 NA
ATOM     15  O   UNL d   1      58.151  67.467  75.033  0.00  0.00    -0.263 OA
ATOM     16  C   UNL d   1      56.412  67.252  78.072  0.00  0.00     0.241 A 
ATOM     17  N   UNL d   1      55.785  66.211  78.833  0.00  0.00    -0.059 NA
ATOM     18  C   UNL d   1      57.588  71.276  76.908  0.00  0.00     0.166 C 
ENDBRANCH   7   8
ENDBRANCH   6   7
ENDBRANCH   1   6
TORSDOF 3
ENDMDL
MODEL 7
REMARK VINA RESULT:      -5.5      1.944      3.064
REMARK  3 active torsions:
REMARK  status: ('A' for Active; 'I' for Inactive)
REMARK    1  A    between atoms: N_9  and  C_10 
REMARK    2  A    between atoms: C_10  and  C_11 
REMARK    3  A    between atoms: C_11  and  C_12 
ROOT
ATOM      1  C   UNL d   1      76.910  80.996  92.346  0.00  0.00     0.230 C 
ATOM      2  C   UNL d   1      75.716  80.207  92.061  0.00  0.00     0.056 C 
ATOM      3  O   UNL d   1      74.568  79.481  91.758  0.00  0.00    -0.141 OA
ATOM      4  C   UNL d   1      77.126  82.222  91.577  0.00  0.00     0.056 C 
ATOM      5  O   UNL d   1      77.306  83.380  90.826  0.00  0.00    -0.141 OA
ENDROOT
BRANCH   1   6
ATOM      6  C   UNL d   1      77.907  80.543  93.313  0.00  0.00    -0.045 C 
BRANCH   6   7
ATOM      7  C   UNL d   1      78.919  80.097  94.466  0.00  0.00    -0.001 C 
BRANCH   7   8
ATOM      8  N   UNL d   1      79.659  79.481  95.590  0.00  0.00    -0.134 NA
ATOM      9  C   UNL d   1      81.085  79.797  95.761  0.00  0.00     0.161 A 
ATOM     10  C   UNL d   1      81.904  78.578  95.848  0.00  0.00     0.170 A 
ATOM     11  N   UNL d   1      81.617  80.988  96.116  0.00  0.00    -0.200 NA
ATOM     12  C   UNL d   1      83.339  78.675  96.269  0.00  0.00     0.302 A 
ATOM     13  N   UNL d   1      81.205  77.428  95.578  0.00  0.00    -0.223 NA
ATOM     14  N   UNL d   1      83.778  79.924  96.539  0.00  0.00    -0.174 NA
ATOM     15  O   UNL d   1      84.054  77.668  96.364  0.00  0.00    -0.263 OA
ATOM     16  C   UNL d   1      82.937  80.992  96.454  0.00  0.00     0.241 A 
ATOM     17  N   UNL d   1      83.504  82.265  96.792  0.00  0.00    -0.059 NA
ATOM     18  C   UNL d   1      79.905  78.061  95.383  0.00  0.00     0.166 C 
ENDBRANCH   7   8
ENDBRANCH   6   7
ENDBRANCH   1   6
TORSDOF 3
ENDMDL
MODEL 8
REMARK VINA RESULT:      -5.5     12.968     14.175
REMARK  3 active torsions:
REMARK  status: ('A' for Active; 'I' for Inactive)
REMARK    1  A    between atoms: N_9  and  C_10 
REMARK    2  A    between atoms: C_10  and  C_11 
REMARK    3  A    between atoms: C_11  and  C_12 
ROOT
ATOM      1  C   UNL d   1      69.761  70.878 102.117  0.00  0.00     0.230 C 
ATOM      2  C   UNL d   1      69.083  69.585 102.109  0.00  0.00     0.056 C 
ATOM      3  O   UNL d   1      68.405  68.370 102.125  0.00  0.00    -0.141 OA
ATOM      4  C   UNL d   1      69.167  71.964 102.898  0.00  0.00     0.056 C 
ATOM      5  O   UNL d   1      68.576  72.977 103.646  0.00  0.00    -0.141 OA
ENDROOT
BRANCH   1   6
ATOM      6  C   UNL d   1      70.955  71.114 101.309  0.00  0.00    -0.045 C 
BRANCH   6   7
ATOM      7  C   UNL d   1      72.327  71.295 100.511  0.00  0.00    -0.001 C 
BRANCH   7   8
ATOM      8  N   UNL d   1      73.559  71.743  99.823  0.00  0.00    -0.134 NA
ATOM      9  C   UNL d   1      74.753  70.887  99.873  0.00  0.00     0.161 A 
ATOM     10  C   UNL d   1      75.932  71.627 100.349  0.00  0.00     0.170 A 
ATOM     11  N   UNL d   1      74.913  69.679  99.286  0.00  0.00    -0.200 NA
ATOM     12  C   UNL d   1      77.293  71.010 100.238  0.00  0.00     0.302 A 
ATOM     13  N   UNL d   1      75.638  72.887 100.808  0.00  0.00    -0.223 NA
ATOM     14  N   UNL d   1      77.322  69.774  99.693  0.00  0.00    -0.174 NA
ATOM     15  O   UNL d   1      78.308  71.610 100.619  0.00  0.00    -0.263 OA
ATOM     16  C   UNL d   1      76.179  69.177  99.256  0.00  0.00     0.241 A 
ATOM     17  N   UNL d   1      76.335  67.879  98.668  0.00  0.00    -0.059 NA
ATOM     18  C   UNL d   1      74.210  72.848 100.511  0.00  0.00     0.166 C 
ENDBRANCH   7   8
ENDBRANCH   6   7
ENDBRANCH   1   6
TORSDOF 3
ENDMDL
MODEL 9
REMARK VINA RESULT:      -5.5     15.606     17.835
REMARK  3 active torsions:
REMARK  status: ('A' for Active; 'I' for Inactive)
REMARK    1  A    between atoms: N_9  and  C_10 
REMARK    2  A    between atoms: C_10  and  C_11 
REMARK    3  A    between atoms: C_11  and  C_12 
ROOT
ATOM      1  C   UNL d   1      60.942  87.178  90.912  0.00  0.00     0.230 C 
ATOM      2  C   UNL d   1      61.145  85.772  90.574  0.00  0.00     0.056 C 
ATOM      3  O   UNL d   1      61.296  84.429  90.244  0.00  0.00    -0.141 OA
ATOM      4  C   UNL d   1      59.575  87.698  90.907  0.00  0.00     0.056 C 
ATOM      5  O   UNL d   1      58.264  88.164  90.890  0.00  0.00    -0.141 OA
ENDROOT
BRANCH   1   6
ATOM      6  C   UNL d   1      62.072  88.067  91.172  0.00  0.00    -0.045 C 
BRANCH   6   7
ATOM      7  C   UNL d   1      63.220  89.130  91.494  0.00  0.00    -0.001 C 
BRANCH   7   8
ATOM      8  N   UNL d   1      64.456  89.884  91.803  0.00  0.00    -0.134 NA
ATOM      9  C   UNL d   1      65.173  89.594  93.054  0.00  0.00     0.161 A 
ATOM     10  C   UNL d   1      65.409  90.814  93.840  0.00  0.00     0.170 A 
ATOM     11  N   UNL d   1      65.835  88.457  93.366  0.00  0.00    -0.200 NA
ATOM     12  C   UNL d   1      66.334  90.772  95.018  0.00  0.00     0.302 A 
ATOM     13  N   UNL d   1      64.768  91.920  93.340  0.00  0.00    -0.223 NA
ATOM     14  N   UNL d   1      66.891  89.567  95.272  0.00  0.00    -0.174 NA
ATOM     15  O   UNL d   1      66.565  91.784  95.695  0.00  0.00    -0.263 OA
ATOM     16  C   UNL d   1      66.631  88.497  94.471  0.00  0.00     0.241 A 
ATOM     17  N   UNL d   1      67.300  87.277  94.818  0.00  0.00    -0.059 NA
ATOM     18  C   UNL d   1      64.187  91.266  92.172  0.00  0.00     0.166 C 
ENDBRANCH   7   8
ENDBRANCH   6   7
ENDBRANCH   1   6
TORSDOF 3
ENDMDL
MODEL 10
REMARK VINA RESULT:      -5.4     14.520     17.096
REMARK  3 active torsions:
REMARK  status: ('A' for Active; 'I' for Inactive)
REMARK    1  A    between atoms: N_9  and  C_10 
REMARK    2  A    between atoms: C_10  and  C_11 
REMARK    3  A    between atoms: C_11  and  C_12 
ROOT
ATOM      1  C   UNL d   1      65.661  83.973  91.728  0.00  0.00     0.230 C 
ATOM      2  C   UNL d   1      66.861  83.425  92.353  0.00  0.00     0.056 C 
ATOM      3  O   UNL d   1      67.994  82.863  92.936  0.00  0.00    -0.141 OA
ATOM      4  C   UNL d   1      64.707  83.038  91.130  0.00  0.00     0.056 C 
ATOM      5  O   UNL d   1      63.822  82.125  90.566  0.00  0.00    -0.141 OA
ENDROOT
BRANCH   1   6
ATOM      6  C   UNL d   1      65.449  85.414  91.628  0.00  0.00    -0.045 C 
BRANCH   6   7
ATOM      7  C   UNL d   1      65.225  86.996  91.651  0.00  0.00    -0.001 C 
BRANCH   7   8
ATOM      8  N   UNL d   1      64.966  88.430  91.390  0.00  0.00    -0.134 NA
ATOM      9  C   UNL d   1      64.803  89.343  92.532  0.00  0.00     0.161 A 
ATOM     10  C   UNL d   1      63.555  90.114  92.436  0.00  0.00     0.170 A 
ATOM     11  N   UNL d   1      65.756  89.716  93.415  0.00  0.00    -0.200 NA
ATOM     12  C   UNL d   1      63.322  91.270  93.362  0.00  0.00     0.302 A 
ATOM     13  N   UNL d   1      62.733  89.702  91.417  0.00  0.00    -0.223 NA
ATOM     14  N   UNL d   1      64.316  91.511  94.244  0.00  0.00    -0.174 NA
ATOM     15  O   UNL d   1      62.287  91.948  93.301  0.00  0.00    -0.263 OA
ATOM     16  C   UNL d   1      65.449  90.756  94.241  0.00  0.00     0.241 A 
ATOM     17  N   UNL d   1      66.449  91.122  95.202  0.00  0.00    -0.059 NA
ATOM     18  C   UNL d   1      63.620  88.670  90.889  0.00  0.00     0.166 C 
ENDBRANCH   7   8
ENDBRANCH   6   7
ENDBRANCH   1   6
TORSDOF 3
ENDMDL
MODEL 11
REMARK VINA RESULT:      -5.4     17.246     19.845
REMARK  3 active torsions:
REMARK  status: ('A' for Active; 'I' for Inactive)
REMARK    1  A    between atoms: N_9  and  C_10 
REMARK    2  A    between atoms: C_10  and  C_11 
REMARK    3  A    between atoms: C_11  and  C_12 
ROOT
ATOM      1  C   UNL d   1      64.767  89.743  96.025  0.00  0.00     0.230 C 
ATOM      2  C   UNL d   1      65.432  88.600  96.644  0.00  0.00     0.056 C 
ATOM      3  O   UNL d   1      66.070  87.533  97.270  0.00  0.00    -0.141 OA
ATOM      4  C   UNL d   1      64.703  90.995  96.780  0.00  0.00     0.056 C 
ATOM      5  O   UNL d   1      64.653  92.170  97.524  0.00  0.00    -0.141 OA
ENDROOT
BRANCH   1   6
ATOM      6  C   UNL d   1      64.114  89.628  94.724  0.00  0.00    -0.045 C 
BRANCH   6   7
ATOM      7  C   UNL d   1      63.477  89.397  93.277  0.00  0.00    -0.001 C 
BRANCH   7   8
ATOM      8  N   UNL d   1      62.850  89.469  91.938  0.00  0.00    -0.134 NA
ATOM      9  C   UNL d   1      61.778  88.519  91.602  0.00  0.00     0.161 A 
ATOM     10  C   UNL d   1      62.058  87.808  90.346  0.00  0.00     0.170 A 
ATOM     11  N   UNL d   1      60.538  88.470  92.138  0.00  0.00    -0.200 NA
ATOM     12  C   UNL d   1      60.984  86.984  89.702  0.00  0.00     0.302 A 
ATOM     13  N   UNL d   1      63.317  88.044  89.851  0.00  0.00    -0.223 NA
ATOM     14  N   UNL d   1      59.805  86.959  90.361  0.00  0.00    -0.174 NA
ATOM     15  O   UNL d   1      61.182  86.381  88.638  0.00  0.00    -0.263 OA
ATOM     16  C   UNL d   1      59.631  87.671  91.508  0.00  0.00     0.241 A 
ATOM     17  N   UNL d   1      58.329  87.593  92.104  0.00  0.00    -0.059 NA
ATOM     18  C   UNL d   1      63.730  88.990  90.883  0.00  0.00     0.166 C 
ENDBRANCH   7   8
ENDBRANCH   6   7
ENDBRANCH   1   6
TORSDOF 3
ENDMDL
MODEL 12
REMARK VINA RESULT:      -5.4     13.925     16.193
REMARK  3 active torsions:
REMARK  status: ('A' for Active; 'I' for Inactive)
REMARK    1  A    between atoms: N_9  and  C_10 
REMARK    2  A    between atoms: C_10  and  C_11 
REMARK    3  A    between atoms: C_11  and  C_12 
ROOT
ATOM      1  C   UNL d   1      65.535  84.006  91.996  0.00  0.00     0.230 C 
ATOM      2  C   UNL d   1      66.670  83.128  92.264  0.00  0.00     0.056 C 
ATOM      3  O   UNL d   1      67.738  82.265  92.487  0.00  0.00    -0.141 OA
ATOM      4  C   UNL d   1      64.548  83.575  91.005  0.00  0.00     0.056 C 
ATOM      5  O   UNL d   1      63.629  83.141  90.055  0.00  0.00    -0.141 OA
ENDROOT
BRANCH   1   6
ATOM      6  C   UNL d   1      65.419  85.313  92.637  0.00  0.00    -0.045 C 
BRANCH   6   7
ATOM      7  C   UNL d   1      65.271  86.680  93.452  0.00  0.00    -0.001 C 
BRANCH   7   8
ATOM      8  N   UNL d   1      65.201  87.783  94.436  0.00  0.00    -0.134 NA
ATOM      9  C   UNL d   1      65.270  89.171  93.954  0.00  0.00     0.161 A 
ATOM     10  C   UNL d   1      66.317  89.936  94.650  0.00  0.00     0.170 A 
ATOM     11  N   UNL d   1      64.342  89.823  93.217  0.00  0.00    -0.200 NA
ATOM     12  C   UNL d   1      66.384  91.424  94.485  0.00  0.00     0.302 A 
ATOM     13  N   UNL d   1      67.113  89.164  95.459  0.00  0.00    -0.223 NA
ATOM     14  N   UNL d   1      65.444  91.957  93.675  0.00  0.00    -0.174 NA
ATOM     15  O   UNL d   1      67.245  92.100  95.065  0.00  0.00    -0.263 OA
ATOM     16  C   UNL d   1      64.497  91.171  93.093  0.00  0.00     0.241 A 
ATOM     17  N   UNL d   1      63.532  91.850  92.277  0.00  0.00    -0.059 NA
ATOM     18  C   UNL d   1      66.417  87.902  95.227  0.00  0.00     0.166 C 
ENDBRANCH   7   8
ENDBRANCH   6   7
ENDBRANCH   1   6
TORSDOF 3
ENDMDL
MODEL 13
REMARK VINA RESULT:      -5.3     12.073     14.907
REMARK  3 active torsions:
REMARK  status: ('A' for Active; 'I' for Inactive)
REMARK    1  A    between atoms: N_9  and  C_10 
REMARK    2  A    between atoms: C_10  and  C_11 
REMARK    3  A    between atoms: C_11  and  C_12 
ROOT
ATOM      1  C   UNL d   1      70.835  74.829  91.605  0.00  0.00     0.230 C 
ATOM      2  C   UNL d   1      71.915  73.848  91.564  0.00  0.00     0.056 C 
ATOM      3  O   UNL d   1      72.970  72.943  91.509  0.00  0.00    -0.141 OA
ATOM      4  C   UNL d   1      71.075  76.144  91.010  0.00  0.00     0.056 C 
ATOM      5  O   UNL d   1      71.335  77.387  90.441  0.00  0.00    -0.141 OA
ENDROOT
BRANCH   1   6
ATOM      6  C   UNL d   1      69.575  74.543  92.286  0.00  0.00    -0.045 C 
BRANCH   6   7
ATOM      7  C   UNL d   1      68.240  74.304  93.131  0.00  0.00    -0.001 C 
BRANCH   7   8
ATOM      8  N   UNL d   1      67.175  73.929  94.088  0.00  0.00    -0.134 NA
ATOM      9  C   UNL d   1      67.382  72.764  94.962  0.00  0.00     0.161 A 
ATOM     10  C   UNL d   1      66.267  71.809  94.868  0.00  0.00     0.170 A 
ATOM     11  N   UNL d   1      68.274  72.655  95.973  0.00  0.00    -0.200 NA
ATOM     12  C   UNL d   1      66.164  70.686  95.854  0.00  0.00     0.302 A 
ATOM     13  N   UNL d   1      65.372  72.110  93.872  0.00  0.00    -0.223 NA
ATOM     14  N   UNL d   1      67.146  70.641  96.781  0.00  0.00    -0.174 NA
ATOM     15  O   UNL d   1      65.232  69.871  95.811  0.00  0.00    -0.263 OA
ATOM     16  C   UNL d   1      68.126  71.586  96.805  0.00  0.00     0.241 A 
ATOM     17  N   UNL d   1      69.099  71.455  97.851  0.00  0.00    -0.059 NA
ATOM     18  C   UNL d   1      66.017  73.343  93.430  0.00  0.00     0.166 C 
ENDBRANCH   7   8
ENDBRANCH   6   7
ENDBRANCH   1   6
TORSDOF 3
ENDMDL
MODEL 14
REMARK VINA RESULT:      -5.3     11.225     13.549
REMARK  3 active torsions:
REMARK  status: ('A' for Active; 'I' for Inactive)
REMARK    1  A    between atoms: N_9  and  C_10 
REMARK    2  A    between atoms: C_10  and  C_11 
REMARK    3  A    between atoms: C_11  and  C_12 
ROOT
ATOM      1  C   UNL d   1      76.442  74.216  90.212  0.00  0.00     0.230 C 
ATOM      2  C   UNL d   1      75.322  75.120  90.456  0.00  0.00     0.056 C 
ATOM      3  O   UNL d   1      74.282  76.014  90.692  0.00  0.00    -0.141 OA
ATOM      4  C   UNL d   1      77.798  74.760  90.295  0.00  0.00     0.056 C 
ATOM      5  O   UNL d   1      79.074  75.307  90.375  0.00  0.00    -0.141 OA
ENDROOT
BRANCH   1   6
ATOM      6  C   UNL d   1      76.224  72.826  89.821  0.00  0.00    -0.045 C 
BRANCH   6   7
ATOM      7  C   UNL d   1      75.976  71.276  89.521  0.00  0.00    -0.001 C 
BRANCH   7   8
ATOM      8  N   UNL d   1      75.753  69.922  88.967  0.00  0.00    -0.134 NA
ATOM      9  C   UNL d   1      76.810  68.910  89.114  0.00  0.00     0.161 A 
ATOM     10  C   UNL d   1      77.166  68.305  87.821  0.00  0.00     0.170 A 
ATOM     11  N   UNL d   1      77.224  68.329  90.263  0.00  0.00    -0.200 NA
ATOM     12  C   UNL d   1      78.038  67.087  87.785  0.00  0.00     0.302 A 
ATOM     13  N   UNL d   1      76.578  68.925  86.747  0.00  0.00    -0.223 NA
ATOM     14  N   UNL d   1      78.443  66.632  88.991  0.00  0.00    -0.174 NA
ATOM     15  O   UNL d   1      78.347  66.545  86.715  0.00  0.00    -0.263 OA
ATOM     16  C   UNL d   1      78.040  67.244  90.138  0.00  0.00     0.241 A 
ATOM     17  N   UNL d   1      78.508  66.657  91.361  0.00  0.00    -0.059 NA
ATOM     18  C   UNL d   1      75.807  69.899  87.513  0.00  0.00     0.166 C 
ENDBRANCH   7   8
ENDBRANCH   6   7
ENDBRANCH   1   6
TORSDOF 3
ENDMDL
MODEL 15
REMARK VINA RESULT:      -5.2     14.885     17.286
REMARK  3 active torsions:
REMARK  status: ('A' for Active; 'I' for Inactive)
REMARK    1  A    between atoms: N_9  and  C_10 
REMARK    2  A    between atoms: C_10  and  C_11 
REMARK    3  A    between atoms: C_11  and  C_12 
ROOT
ATOM      1  C   UNL d   1      68.504  86.351  95.188  0.00  0.00     0.230 C 
ATOM      2  C   UNL d   1      68.949  85.684  93.968  0.00  0.00     0.056 C 
ATOM      3  O   UNL d   1      69.388  85.016  92.829  0.00  0.00    -0.141 OA
ATOM      4  C   UNL d   1      68.870  85.754  96.473  0.00  0.00     0.056 C 
ATOM      5  O   UNL d   1      69.229  85.160  97.679  0.00  0.00    -0.141 OA
ENDROOT
BRANCH   1   6
ATOM      6  C   UNL d   1      67.653  87.537  95.138  0.00  0.00    -0.045 C 
BRANCH   6   7
ATOM      7  C   UNL d   1      66.625  88.759  95.132  0.00  0.00    -0.001 C 
BRANCH   7   8
ATOM      8  N   UNL d   1      65.818  89.980  95.359  0.00  0.00    -0.134 NA
ATOM      9  C   UNL d   1      64.364  89.922  95.144  0.00  0.00     0.161 A 
ATOM     10  C   UNL d   1      63.908  90.983  94.233  0.00  0.00     0.170 A 
ATOM     11  N   UNL d   1      63.461  89.235  95.879  0.00  0.00    -0.200 NA
ATOM     12  C   UNL d   1      62.442  91.251  94.080  0.00  0.00     0.302 A 
ATOM     13  N   UNL d   1      64.935  91.679  93.646  0.00  0.00    -0.223 NA
ATOM     14  N   UNL d   1      61.631  90.461  94.817  0.00  0.00    -0.174 NA
ATOM     15  O   UNL d   1      62.024  92.145  93.330  0.00  0.00    -0.263 OA
ATOM     16  C   UNL d   1      62.147  89.520  95.653  0.00  0.00     0.241 A 
ATOM     17  N   UNL d   1      61.193  88.759  96.408  0.00  0.00    -0.059 NA
ATOM     18  C   UNL d   1      66.023  90.983  94.326  0.00  0.00     0.166 C 
ENDBRANCH   7   8
ENDBRANCH   6   7
ENDBRANCH   1   6
TORSDOF 3
ENDMDL
MODEL 16
REMARK VINA RESULT:      -5.2     18.800     19.755
REMARK  3 active torsions:
REMARK  status: ('A' for Active; 'I' for Inactive)
REMARK    1  A    between atoms: N_9  and  C_10 
REMARK    2  A    between atoms: C_10  and  C_11 
REMARK    3  A    between atoms: C_11  and  C_12 
ROOT
ATOM      1  C   UNL d   1      60.317  84.906  91.206  0.00  0.00     0.230 C 
ATOM      2  C   UNL d   1      61.486  84.283  90.591  0.00  0.00     0.056 C 
ATOM      3  O   UNL d   1      62.573  83.665  89.982  0.00  0.00    -0.141 OA
ATOM      4  C   UNL d   1      58.995  84.379  90.864  0.00  0.00     0.056 C 
ATOM      5  O   UNL d   1      57.752  83.860  90.516  0.00  0.00    -0.141 OA
ENDROOT
BRANCH   1   6
ATOM      6  C   UNL d   1      60.448  86.070  92.078  0.00  0.00    -0.045 C 
BRANCH   6   7
ATOM      7  C   UNL d   1      60.660  87.403  92.934  0.00  0.00    -0.001 C 
BRANCH   7   8
ATOM      8  N   UNL d   1      60.571  88.665  93.701  0.00  0.00    -0.134 NA
ATOM      9  C   UNL d   1      61.766  89.514  93.817  0.00  0.00     0.161 A 
ATOM     10  C   UNL d   1      62.070  89.836  95.220  0.00  0.00     0.170 A 
ATOM     11  N   UNL d   1      62.371  90.206  92.825  0.00  0.00    -0.200 NA
ATOM     12  C   UNL d   1      63.093  90.883  95.538  0.00  0.00     0.302 A 
ATOM     13  N   UNL d   1      61.296  89.145  96.120  0.00  0.00    -0.223 NA
ATOM     14  N   UNL d   1      63.677  91.463  94.466  0.00  0.00    -0.174 NA
ATOM     15  O   UNL d   1      63.364  91.187  96.708  0.00  0.00    -0.263 OA
ATOM     16  C   UNL d   1      63.312  91.117  93.201  0.00  0.00     0.241 A 
ATOM     17  N   UNL d   1      63.977  91.819  92.142  0.00  0.00    -0.059 NA
ATOM     18  C   UNL d   1      60.480  88.440  95.136  0.00  0.00     0.166 C 
ENDBRANCH   7   8
ENDBRANCH   6   7
ENDBRANCH   1   6
TORSDOF 3
ENDMDL
MODEL 17
REMARK VINA RESULT:      -5.1      4.943      6.901
REMARK  3 active torsions:
REMARK  status: ('A' for Active; 'I' for Inactive)
REMARK    1  A    between atoms: N_9  and  C_10 
REMARK    2  A    between atoms: C_10  and  C_11 
REMARK    3  A    between atoms: C_11  and  C_12 
ROOT
ATOM      1  C   UNL d   1      79.480  75.387  99.125  0.00  0.00     0.230 C 
ATOM      2  C   UNL d   1      78.751  74.251  98.570  0.00  0.00     0.056 C 
ATOM      3  O   UNL d   1      78.070  73.143  98.073  0.00  0.00    -0.141 OA
ATOM      4  C   UNL d   1      80.330  75.156 100.293  0.00  0.00     0.056 C 
ATOM      5  O   UNL d   1      81.126  74.906 101.407  0.00  0.00    -0.141 OA
ENDROOT
BRANCH   1   6
ATOM      6  C   UNL d   1      79.313  76.733  98.585  0.00  0.00    -0.045 C 
BRANCH   6   7
ATOM      7  C   UNL d   1      79.020  78.163  97.934  0.00  0.00    -0.001 C 
BRANCH   7   8
ATOM      8  N   UNL d   1      78.821  79.358  97.084  0.00  0.00    -0.134 NA
ATOM      9  C   UNL d   1      79.519  80.605  97.433  0.00  0.00     0.161 A 
ATOM     10  C   UNL d   1      78.587  81.738  97.534  0.00  0.00     0.170 A 
ATOM     11  N   UNL d   1      80.850  80.834  97.375  0.00  0.00    -0.200 NA
ATOM     12  C   UNL d   1      79.123  83.134  97.634  0.00  0.00     0.302 A 
ATOM     13  N   UNL d   1      77.267  81.371  97.458  0.00  0.00    -0.223 NA
ATOM     14  N   UNL d   1      80.470  83.236  97.629  0.00  0.00    -0.174 NA
ATOM     15  O   UNL d   1      78.367  84.113  97.709  0.00  0.00    -0.263 OA
ATOM     16  C   UNL d   1      81.253  82.129  97.507  0.00  0.00     0.241 A 
ATOM     17  N   UNL d   1      82.668  82.361  97.484  0.00  0.00    -0.059 NA
ATOM     18  C   UNL d   1      77.499  79.945  97.249  0.00  0.00     0.166 C 
ENDBRANCH   7   8
ENDBRANCH   6   7
ENDBRANCH   1   6
TORSDOF 3
ENDMDL
MODEL 18
REMARK VINA RESULT:      -5.0     14.553     16.751
REMARK  3 active torsions:
REMARK  status: ('A' for Active; 'I' for Inactive)
REMARK    1  A    between atoms: N_9  and  C_10 
REMARK    2  A    between atoms: C_10  and  C_11 
REMARK    3  A    between atoms: C_11  and  C_12 
ROOT
ATOM      1  C   UNL d   1      68.977  87.636  99.760  0.00  0.00     0.230 C 
ATOM      2  C   UNL d   1      70.383  87.303  99.547  0.00  0.00     0.056 C 
ATOM      3  O   UNL d   1      71.727  86.983  99.387  0.00  0.00    -0.141 OA
ATOM      4  C   UNL d   1      68.518  87.842 101.134  0.00  0.00     0.056 C 
ATOM      5  O   UNL d   1      68.110  88.027 102.451  0.00  0.00    -0.141 OA
ENDROOT
BRANCH   1   6
ATOM      6  C   UNL d   1      68.033  87.689  98.647  0.00  0.00    -0.045 C 
BRANCH   6   7
ATOM      7  C   UNL d   1      66.988  87.877  97.453  0.00  0.00    -0.001 C 
BRANCH   7   8
ATOM      8  N   UNL d   1      66.249  88.008  96.177  0.00  0.00    -0.134 NA
ATOM      9  C   UNL d   1      65.921  89.353  95.680  0.00  0.00     0.161 A 
ATOM     10  C   UNL d   1      64.487  89.486  95.383  0.00  0.00     0.170 A 
ATOM     11  N   UNL d   1      66.788  90.287  95.228  0.00  0.00    -0.200 NA
ATOM     12  C   UNL d   1      63.990  90.688  94.638  0.00  0.00     0.302 A 
ATOM     13  N   UNL d   1      63.740  88.409  95.792  0.00  0.00    -0.223 NA
ATOM     14  N   UNL d   1      64.939  91.585  94.292  0.00  0.00    -0.174 NA
ATOM     15  O   UNL d   1      62.790  90.826  94.361  0.00  0.00    -0.263 OA
ATOM     16  C   UNL d   1      66.249  91.363  94.589  0.00  0.00     0.241 A 
ATOM     17  N   UNL d   1      67.172  92.368  94.147  0.00  0.00    -0.059 NA
ATOM     18  C   UNL d   1      64.854  87.613  96.298  0.00  0.00     0.166 C 
ENDBRANCH   7   8
ENDBRANCH   6   7
ENDBRANCH   1   6
TORSDOF 3
ENDMDL
MODEL 19
REMARK VINA RESULT:      -5.0     18.074     19.607
REMARK  3 active torsions:
REMARK  status: ('A' for Active; 'I' for Inactive)
REMARK    1  A    between atoms: N_9  and  C_10 
REMARK    2  A    between atoms: C_10  and  C_11 
REMARK    3  A    between atoms: C_11  and  C_12 
ROOT
ATOM      1  C   UNL d   1      61.564  86.350  97.491  0.00  0.00     0.230 C 
ATOM      2  C   UNL d   1      62.783  85.548  97.450  0.00  0.00     0.056 C 
ATOM      3  O   UNL d   1      63.929  84.758  97.440  0.00  0.00    -0.141 OA
ATOM      4  C   UNL d   1      60.541  85.999  98.477  0.00  0.00     0.056 C 
ATOM      5  O   UNL d   1      59.585  85.639  99.422  0.00  0.00    -0.141 OA
ENDROOT
BRANCH   1   6
ATOM      6  C   UNL d   1      61.328  87.423  96.529  0.00  0.00    -0.045 C 
BRANCH   6   7
ATOM      7  C   UNL d   1      61.201  88.599  95.455  0.00  0.00    -0.001 C 
BRANCH   7   8
ATOM      8  N   UNL d   1      61.313  89.799  94.595  0.00  0.00    -0.134 NA
ATOM      9  C   UNL d   1      62.356  89.838  93.559  0.00  0.00     0.161 A 
ATOM     10  C   UNL d   1      63.182  91.050  93.665  0.00  0.00     0.170 A 
ATOM     11  N   UNL d   1      62.419  89.079  92.441  0.00  0.00    -0.200 NA
ATOM     12  C   UNL d   1      64.133  91.400  92.561  0.00  0.00     0.302 A 
ATOM     13  N   UNL d   1      62.928  91.789  94.794  0.00  0.00    -0.223 NA
ATOM     14  N   UNL d   1      64.156  90.536  91.523  0.00  0.00    -0.174 NA
ATOM     15  O   UNL d   1      64.835  92.420  92.613  0.00  0.00    -0.263 OA
ATOM     16  C   UNL d   1      63.334  89.451  91.502  0.00  0.00     0.241 A 
ATOM     17  N   UNL d   1      63.423  88.619  90.337  0.00  0.00    -0.059 NA
ATOM     18  C   UNL d   1      61.852  90.947  95.309  0.00  0.00     0.166 C 
ENDBRANCH   7   8
ENDBRANCH   6   7
ENDBRANCH   1   6
TORSDOF 3
ENDMDL
MODEL 20
REMARK VINA RESULT:      -4.9     14.171     16.720
REMARK  3 active torsions:
REMARK  status: ('A' for Active; 'I' for Inactive)
REMARK    1  A    between atoms: N_9  and  C_10 
REMARK    2  A    between atoms: C_10  and  C_11 
REMARK    3  A    between atoms: C_11  and  C_12 
ROOT
ATOM      1  C   UNL d   1      68.700  85.605  94.245  0.00  0.00     0.230 C 
ATOM      2  C   UNL d   1      68.655  84.494  95.190  0.00  0.00     0.056 C 
ATOM      3  O   UNL d   1      68.645  83.417  96.071  0.00  0.00    -0.141 OA
ATOM      4  C   UNL d   1      69.667  85.539  93.148  0.00  0.00     0.056 C 
ATOM      5  O   UNL d   1      70.599  85.449  92.119  0.00  0.00    -0.141 OA
ENDROOT
BRANCH   1   6
ATOM      6  C   UNL d   1      67.864  86.789  94.424  0.00  0.00    -0.045 C 
BRANCH   6   7
ATOM      7  C   UNL d   1      66.960  88.065  94.751  0.00  0.00    -0.001 C 
BRANCH   7   8
ATOM      8  N   UNL d   1      65.902  89.070  95.001  0.00  0.00    -0.134 NA
ATOM      9  C   UNL d   1      64.773  89.163  94.063  0.00  0.00     0.161 A 
ATOM     10  C   UNL d   1      64.587  90.537  93.572  0.00  0.00     0.170 A 
ATOM     11  N   UNL d   1      63.800  88.244  93.868  0.00  0.00    -0.200 NA
ATOM     12  C   UNL d   1      63.348  90.892  92.807  0.00  0.00     0.302 A 
ATOM     13  N   UNL d   1      65.593  91.393  93.946  0.00  0.00    -0.223 NA
ATOM     14  N   UNL d   1      62.476  89.877  92.620  0.00  0.00    -0.174 NA
ATOM     15  O   UNL d   1      63.154  92.042  92.390  0.00  0.00    -0.263 OA
ATOM     16  C   UNL d   1      62.723  88.641  93.134  0.00  0.00     0.241 A 
ATOM     17  N   UNL d   1      61.713  87.650  92.899  0.00  0.00    -0.059 NA
ATOM     18  C   UNL d   1      66.351  90.429  94.738  0.00  0.00     0.166 C 
ENDBRANCH   7   8
ENDBRANCH   6   7
ENDBRANCH   1   6
TORSDOF 3
ENDMDL
