MODEL 1
REMARK VINA RESULT:      -1.3      0.000      0.000
REMARK  5 active torsions:
REMARK  status: ('A' for Active; 'I' for Inactive)
REMARK       I    between atoms: C_2  and  N_4 
REMARK       I    between atoms: C_2  and  N_14 
REMARK    1  A    between atoms: CA_15  and  N_14 
REMARK    2  A    between atoms: CA_15  and  C_16 
REMARK    3  A    between atoms: CA_15  and  C_32 
REMARK       I    between atoms: C_16  and  N_18 
REMARK    4  A    between atoms: CA_19  and  N_18 
REMARK    5  A    between atoms: CA_22  and  C_27 
ROOT
ATOM      1 NA   UNL d   1      69.550  64.477  88.011  0.00  0.00     0.000 Na
ENDROOT
TORSDOF 5
ENDMDL
MODEL 2
REMARK VINA RESULT:      -1.2     28.518     28.518
REMARK  5 active torsions:
REMARK  status: ('A' for Active; 'I' for Inactive)
REMARK       I    between atoms: C_2  and  N_4 
REMARK       I    between atoms: C_2  and  N_14 
REMARK    1  A    between atoms: CA_15  and  N_14 
REMARK    2  A    between atoms: CA_15  and  C_16 
REMARK    3  A    between atoms: CA_15  and  C_32 
REMARK       I    between atoms: C_16  and  N_18 
REMARK    4  A    between atoms: CA_19  and  N_18 
REMARK    5  A    between atoms: CA_22  and  C_27 
ROOT
ATOM      1 NA   UNL d   1      79.756  90.280  94.592  0.00  0.00     0.000 Na
ENDROOT
TORSDOF 5
ENDMDL
MODEL 3
REMARK VINA RESULT:      -1.2     19.835     19.835
REMARK  5 active torsions:
REMARK  status: ('A' for Active; 'I' for Inactive)
REMARK       I    between atoms: C_2  and  N_4 
REMARK       I    between atoms: C_2  and  N_14 
REMARK    1  A    between atoms: CA_15  and  N_14 
REMARK    2  A    between atoms: CA_15  and  C_16 
REMARK    3  A    between atoms: CA_15  and  C_32 
REMARK       I    between atoms: C_16  and  N_18 
REMARK    4  A    between atoms: CA_19  and  N_18 
REMARK    5  A    between atoms: CA_22  and  C_27 
ROOT
ATOM      1 NA   UNL d   1      65.877  80.050  76.288  0.00  0.00     0.000 Na
ENDROOT
TORSDOF 5
ENDMDL
MODEL 4
REMARK VINA RESULT:      -1.2     16.299     16.299
REMARK  5 active torsions:
REMARK  status: ('A' for Active; 'I' for Inactive)
REMARK       I    between atoms: C_2  and  N_4 
REMARK       I    between atoms: C_2  and  N_14 
REMARK    1  A    between atoms: CA_15  and  N_14 
REMARK    2  A    between atoms: CA_15  and  C_16 
REMARK    3  A    between atoms: CA_15  and  C_32 
REMARK       I    between atoms: C_16  and  N_18 
REMARK    4  A    between atoms: CA_19  and  N_18 
REMARK    5  A    between atoms: CA_22  and  C_27 
ROOT
ATOM      1 NA   UNL d   1      55.005  63.125  95.242  0.00  0.00     0.000 Na
ENDROOT
TORSDOF 5
ENDMDL
MODEL 5
REMARK VINA RESULT:      -1.2     26.166     26.166
REMARK  5 active torsions:
REMARK  status: ('A' for Active; 'I' for Inactive)
REMARK       I    between atoms: C_2  and  N_4 
REMARK       I    between atoms: C_2  and  N_14 
REMARK    1  A    between atoms: CA_15  and  N_14 
REMARK    2  A    between atoms: CA_15  and  C_16 
REMARK    3  A    between atoms: CA_15  and  C_32 
REMARK       I    between atoms: C_16  and  N_18 
REMARK    4  A    between atoms: CA_19  and  N_18 
REMARK    5  A    between atoms: CA_22  and  C_27 
ROOT
ATOM      1 NA   UNL d   1      80.997  87.438  93.153  0.00  0.00     0.000 Na
ENDROOT
TORSDOF 5
ENDMDL
MODEL 6
REMARK VINA RESULT:      -1.1     18.292     18.292
REMARK  5 active torsions:
REMARK  status: ('A' for Active; 'I' for Inactive)
REMARK       I    between atoms: C_2  and  N_4 
REMARK       I    between atoms: C_2  and  N_14 
REMARK    1  A    between atoms: CA_15  and  N_14 
REMARK    2  A    between atoms: CA_15  and  C_16 
REMARK    3  A    between atoms: CA_15  and  C_32 
REMARK       I    between atoms: C_16  and  N_18 
REMARK    4  A    between atoms: CA_19  and  N_18 
REMARK    5  A    between atoms: CA_22  and  C_27 
ROOT
ATOM      1 NA   UNL d   1      61.014  79.652  82.403  0.00  0.00     0.000 Na
ENDROOT
TORSDOF 5
ENDMDL
MODEL 7
REMARK VINA RESULT:      -1.1     18.446     18.446
REMARK  5 active torsions:
REMARK  status: ('A' for Active; 'I' for Inactive)
REMARK       I    between atoms: C_2  and  N_4 
REMARK       I    between atoms: C_2  and  N_14 
REMARK    1  A    between atoms: CA_15  and  N_14 
REMARK    2  A    between atoms: CA_15  and  C_16 
REMARK    3  A    between atoms: CA_15  and  C_32 
REMARK       I    between atoms: C_16  and  N_18 
REMARK    4  A    between atoms: CA_19  and  N_18 
REMARK    5  A    between atoms: CA_22  and  C_27 
ROOT
ATOM      1 NA   UNL d   1      62.781  79.515  79.746  0.00  0.00     0.000 Na
ENDROOT
TORSDOF 5
ENDMDL
MODEL 8
REMARK VINA RESULT:      -1.1     11.732     11.732
REMARK  5 active torsions:
REMARK  status: ('A' for Active; 'I' for Inactive)
REMARK       I    between atoms: C_2  and  N_4 
REMARK       I    between atoms: C_2  and  N_14 
REMARK    1  A    between atoms: CA_15  and  N_14 
REMARK    2  A    between atoms: CA_15  and  C_16 
REMARK    3  A    between atoms: CA_15  and  C_32 
REMARK       I    between atoms: C_16  and  N_18 
REMARK    4  A    between atoms: CA_19  and  N_18 
REMARK    5  A    between atoms: CA_22  and  C_27 
ROOT
ATOM      1 NA   UNL d   1      57.964  66.307  88.272  0.00  0.00     0.000 Na
ENDROOT
TORSDOF 5
ENDMDL
MODEL 9
REMARK VINA RESULT:      -1.1     19.073     19.073
REMARK  5 active torsions:
REMARK  status: ('A' for Active; 'I' for Inactive)
REMARK       I    between atoms: C_2  and  N_4 
REMARK       I    between atoms: C_2  and  N_14 
REMARK    1  A    between atoms: CA_15  and  N_14 
REMARK    2  A    between atoms: CA_15  and  C_16 
REMARK    3  A    between atoms: CA_15  and  C_32 
REMARK       I    between atoms: C_16  and  N_18 
REMARK    4  A    between atoms: CA_19  and  N_18 
REMARK    5  A    between atoms: CA_22  and  C_27 
ROOT
ATOM      1 NA   UNL d   1      55.087  76.897  88.637  0.00  0.00     0.000 Na
ENDROOT
TORSDOF 5
ENDMDL
MODEL 10
REMARK VINA RESULT:      -1.1     27.098     27.098
REMARK  5 active torsions:
REMARK  status: ('A' for Active; 'I' for Inactive)
REMARK       I    between atoms: C_2  and  N_4 
REMARK       I    between atoms: C_2  and  N_14 
REMARK    1  A    between atoms: CA_15  and  N_14 
REMARK    2  A    between atoms: CA_15  and  C_16 
REMARK    3  A    between atoms: CA_15  and  C_32 
REMARK       I    between atoms: C_16  and  N_18 
REMARK    4  A    between atoms: CA_19  and  N_18 
REMARK    5  A    between atoms: CA_22  and  C_27 
ROOT
ATOM      1 NA   UNL d   1      81.671  88.657  86.364  0.00  0.00     0.000 Na
ENDROOT
TORSDOF 5
ENDMDL
MODEL 11
REMARK VINA RESULT:      -1.0     26.430     26.430
REMARK  5 active torsions:
REMARK  status: ('A' for Active; 'I' for Inactive)
REMARK       I    between atoms: C_2  and  N_4 
REMARK       I    between atoms: C_2  and  N_14 
REMARK    1  A    between atoms: CA_15  and  N_14 
REMARK    2  A    between atoms: CA_15  and  C_16 
REMARK    3  A    between atoms: CA_15  and  C_32 
REMARK       I    between atoms: C_16  and  N_18 
REMARK    4  A    between atoms: CA_19  and  N_18 
REMARK    5  A    between atoms: CA_22  and  C_27 
ROOT
ATOM      1 NA   UNL d   1      75.032  90.168  90.923  0.00  0.00     0.000 Na
ENDROOT
TORSDOF 5
ENDMDL
MODEL 12
REMARK VINA RESULT:      -1.0      6.728      6.728
REMARK  5 active torsions:
REMARK  status: ('A' for Active; 'I' for Inactive)
REMARK       I    between atoms: C_2  and  N_4 
REMARK       I    between atoms: C_2  and  N_14 
REMARK    1  A    between atoms: CA_15  and  N_14 
REMARK    2  A    between atoms: CA_15  and  C_16 
REMARK    3  A    between atoms: CA_15  and  C_32 
REMARK       I    between atoms: C_16  and  N_18 
REMARK    4  A    between atoms: CA_19  and  N_18 
REMARK    5  A    between atoms: CA_22  and  C_27 
ROOT
ATOM      1 NA   UNL d   1      73.062  69.679  85.589  0.00  0.00     0.000 Na
ENDROOT
TORSDOF 5
ENDMDL
MODEL 13
REMARK VINA RESULT:      -1.0     25.638     25.638
REMARK  5 active torsions:
REMARK  status: ('A' for Active; 'I' for Inactive)
REMARK       I    between atoms: C_2  and  N_4 
REMARK       I    between atoms: C_2  and  N_14 
REMARK    1  A    between atoms: CA_15  and  N_14 
REMARK    2  A    between atoms: CA_15  and  C_16 
REMARK    3  A    between atoms: CA_15  and  C_32 
REMARK       I    between atoms: C_16  and  N_18 
REMARK    4  A    between atoms: CA_19  and  N_18 
REMARK    5  A    between atoms: CA_22  and  C_27 
ROOT
ATOM      1 NA   UNL d   1      73.924  89.724  88.902  0.00  0.00     0.000 Na
ENDROOT
TORSDOF 5
ENDMDL
MODEL 14
REMARK VINA RESULT:      -1.0     17.046     17.046
REMARK  5 active torsions:
REMARK  status: ('A' for Active; 'I' for Inactive)
REMARK       I    between atoms: C_2  and  N_4 
REMARK       I    between atoms: C_2  and  N_14 
REMARK    1  A    between atoms: CA_15  and  N_14 
REMARK    2  A    between atoms: CA_15  and  C_16 
REMARK    3  A    between atoms: CA_15  and  C_32 
REMARK       I    between atoms: C_16  and  N_18 
REMARK    4  A    between atoms: CA_19  and  N_18 
REMARK    5  A    between atoms: CA_22  and  C_27 
ROOT
ATOM      1 NA   UNL d   1      77.859  76.723  79.551  0.00  0.00     0.000 Na
ENDROOT
TORSDOF 5
ENDMDL
MODEL 15
REMARK VINA RESULT:      -1.0     28.326     28.326
REMARK  5 active torsions:
REMARK  status: ('A' for Active; 'I' for Inactive)
REMARK       I    between atoms: C_2  and  N_4 
REMARK       I    between atoms: C_2  and  N_14 
REMARK    1  A    between atoms: CA_15  and  N_14 
REMARK    2  A    between atoms: CA_15  and  C_16 
REMARK    3  A    between atoms: CA_15  and  C_32 
REMARK       I    between atoms: C_16  and  N_18 
REMARK    4  A    between atoms: CA_19  and  N_18 
REMARK    5  A    between atoms: CA_22  and  C_27 
ROOT
ATOM      1 NA   UNL d   1      77.733  91.447  90.845  0.00  0.00     0.000 Na
ENDROOT
TORSDOF 5
ENDMDL
MODEL 16
REMARK VINA RESULT:      -1.0     18.148     18.148
REMARK  5 active torsions:
REMARK  status: ('A' for Active; 'I' for Inactive)
REMARK       I    between atoms: C_2  and  N_4 
REMARK       I    between atoms: C_2  and  N_14 
REMARK    1  A    between atoms: CA_15  and  N_14 
REMARK    2  A    between atoms: CA_15  and  C_16 
REMARK    3  A    between atoms: CA_15  and  C_32 
REMARK       I    between atoms: C_16  and  N_18 
REMARK    4  A    between atoms: CA_19  and  N_18 
REMARK    5  A    between atoms: CA_22  and  C_27 
ROOT
ATOM      1 NA   UNL d   1      62.547  80.669  83.754  0.00  0.00     0.000 Na
ENDROOT
TORSDOF 5
ENDMDL
MODEL 17
REMARK VINA RESULT:      -1.0     17.897     17.897
REMARK  5 active torsions:
REMARK  status: ('A' for Active; 'I' for Inactive)
REMARK       I    between atoms: C_2  and  N_4 
REMARK       I    between atoms: C_2  and  N_14 
REMARK    1  A    between atoms: CA_15  and  N_14 
REMARK    2  A    between atoms: CA_15  and  C_16 
REMARK    3  A    between atoms: CA_15  and  C_32 
REMARK       I    between atoms: C_16  and  N_18 
REMARK    4  A    between atoms: CA_19  and  N_18 
REMARK    5  A    between atoms: CA_22  and  C_27 
ROOT
ATOM      1 NA   UNL d   1      55.583  75.595  86.740  0.00  0.00     0.000 Na
ENDROOT
TORSDOF 5
ENDMDL
MODEL 18
REMARK VINA RESULT:      -0.9     20.338     20.338
REMARK  5 active torsions:
REMARK  status: ('A' for Active; 'I' for Inactive)
REMARK       I    between atoms: C_2  and  N_4 
REMARK       I    between atoms: C_2  and  N_14 
REMARK    1  A    between atoms: CA_15  and  N_14 
REMARK    2  A    between atoms: CA_15  and  C_16 
REMARK    3  A    between atoms: CA_15  and  C_32 
REMARK       I    between atoms: C_16  and  N_18 
REMARK    4  A    between atoms: CA_19  and  N_18 
REMARK    5  A    between atoms: CA_22  and  C_27 
ROOT
ATOM      1 NA   UNL d   1      58.803  61.215 104.967  0.00  0.00     0.000 Na
ENDROOT
TORSDOF 5
ENDMDL
MODEL 19
REMARK VINA RESULT:      -0.9     16.255     16.255
REMARK  5 active torsions:
REMARK  status: ('A' for Active; 'I' for Inactive)
REMARK       I    between atoms: C_2  and  N_4 
REMARK       I    between atoms: C_2  and  N_14 
REMARK    1  A    between atoms: CA_15  and  N_14 
REMARK    2  A    between atoms: CA_15  and  C_16 
REMARK    3  A    between atoms: CA_15  and  C_32 
REMARK       I    between atoms: C_16  and  N_18 
REMARK    4  A    between atoms: CA_19  and  N_18 
REMARK    5  A    between atoms: CA_22  and  C_27 
ROOT
ATOM      1 NA   UNL d   1      62.411  76.760  80.110  0.00  0.00     0.000 Na
ENDROOT
TORSDOF 5
ENDMDL
