MODEL 1
REMARK VINA RESULT:      -7.6      0.000      0.000
REMARK  9 active torsions:
REMARK  status: ('A' for Active; 'I' for Inactive)
REMARK    1  A    between atoms: C_3  and  C_4 
REMARK    2  A    between atoms: C_4  and  C_5 
REMARK    3  A    between atoms: C_4  and  C_18 
REMARK    4  A    between atoms: C_5  and  C_6 
REMARK    5  A    between atoms: C_21  and  C_24 
REMARK       I    between atoms: C_24  and  N_26 
REMARK    6  A    between atoms: CA_27  and  CB_28 
REMARK    7  A    between atoms: CA_27  and  C_33 
REMARK    8  A    between atoms: CB_28  and  CG_29 
REMARK    9  A    between atoms: CG_29  and  CD_30 
ROOT
ATOM      1  C   UNK d   0      69.715  83.263  96.015  0.00  0.00    -0.001 C 
ATOM      2  C   UNK d   0      69.443  84.359  96.395  0.00  0.00    -0.008 C 
ATOM      3  C   UNK d   0      69.124  85.754  96.936  0.00  0.00    -0.043 C 
ENDROOT
BRANCH   3   4
ATOM      4  C   UNK d   0      68.836  87.045  97.481  0.00  0.00     0.078 C 
BRANCH   4   5
ATOM      5  C   UNK d   0      69.578  87.428  98.640  0.00  0.00    -0.073 C 
BRANCH   5   6
ATOM      6  C   UNK d   0      70.532  87.939  99.564  0.00  0.00     0.135 A 
ATOM      7  C   UNK d   0      71.877  87.877  99.260  0.00  0.00     0.128 A 
ATOM      8  N   UNK d   0      72.831  88.370 100.084  0.00  0.00    -0.222 NA
ATOM      9  C   UNK d   0      72.433  88.931 101.225  0.00  0.00     0.185 A 
ATOM     10  C   UNK d   0      71.064  88.995 101.541  0.00  0.00     0.149 A 
ATOM     11  N   UNK d   0      73.399  89.405 102.000  0.00  0.00    -0.194 NA
ATOM     12  N   UNK d   0      70.094  88.498 100.705  0.00  0.00    -0.231 NA
ATOM     13  C   UNK d   0      70.841  89.608 102.767  0.00  0.00     0.174 A 
ATOM     14  N   UNK d   0      71.796  90.103 103.584  0.00  0.00    -0.199 NA
ATOM     15  N   UNK d   0      69.495  89.747 103.237  0.00  0.00    -0.078 NA
ATOM     16  C   UNK d   0      73.047  89.975 103.151  0.00  0.00     0.240 A 
ATOM     17  N   UNK d   0      74.089  90.487 103.978  0.00  0.00    -0.059 NA
ENDBRANCH   5   6
ENDBRANCH   4   5
BRANCH   4  18
ATOM     18  C   UNK d   0      67.760  87.859  96.885  0.00  0.00     0.015 A 
ATOM     19  C   UNK d   0      67.831  88.176  95.524  0.00  0.00     0.001 A 
ATOM     20  C   UNK d   0      66.836  88.917  94.898  0.00  0.00     0.005 A 
ATOM     21  C   UNK d   0      65.743  89.372  95.630  0.00  0.00     0.058 A 
ATOM     22  C   UNK d   0      65.666  89.081  96.996  0.00  0.00     0.005 A 
ATOM     23  C   UNK d   0      66.667  88.326  97.617  0.00  0.00     0.001 A 
BRANCH  21  24
ATOM     24  C   UNK d   0      64.673  90.097  94.891  0.00  0.00     0.280 C 
ATOM     25  O   UNK d   0      64.458  91.252  95.264  0.00  0.00    -0.265 OA
ATOM     26  N   GLU d   1      64.163  89.411  93.865  0.00  0.00    -0.193 NA
ATOM     27  CA  GLU d   1      62.901  89.703  93.434  0.00  0.00     0.190 C 
BRANCH  27  28
ATOM     28  CB  GLU d   1      62.482  88.977  92.259  0.00  0.00    -0.028 C 
BRANCH  28  29
ATOM     29  CG  GLU d   1      61.999  88.262  90.953  0.00  0.00     0.012 C 
BRANCH  29  30
ATOM     30  CD  GLU d   1      61.509  87.552  89.699  0.00  0.00     0.258 C 
ATOM     31  OE1 GLU d   1      61.322  86.294  89.766  0.00  0.00    -0.637 OA
ATOM     32  OE2 GLU d   1      61.317  88.265  88.660  0.00  0.00    -0.637 OA
ENDBRANCH  29  30
ENDBRANCH  28  29
ENDBRANCH  27  28
BRANCH  27  33
ATOM     33  C   GLU d   1      61.841  90.626  94.134  0.00  0.00     0.238 C 
ATOM     34  O   GLU d   1      61.805  91.841  93.746  0.00  0.00    -0.642 OA
ATOM     35  OXT GLU d   1      61.029  90.045  94.931  0.00  0.00    -0.642 OA
ENDBRANCH  27  33
ENDBRANCH  21  24
ENDBRANCH   4  18
ENDBRANCH   3   4
TORSDOF 9
ENDMDL
MODEL 2
REMARK VINA RESULT:      -7.6     17.286     20.311
REMARK  9 active torsions:
REMARK  status: ('A' for Active; 'I' for Inactive)
REMARK    1  A    between atoms: C_3  and  C_4 
REMARK    2  A    between atoms: C_4  and  C_5 
REMARK    3  A    between atoms: C_4  and  C_18 
REMARK    4  A    between atoms: C_5  and  C_6 
REMARK    5  A    between atoms: C_21  and  C_24 
REMARK       I    between atoms: C_24  and  N_26 
REMARK    6  A    between atoms: CA_27  and  CB_28 
REMARK    7  A    between atoms: CA_27  and  C_33 
REMARK    8  A    between atoms: CB_28  and  CG_29 
REMARK    9  A    between atoms: CG_29  and  CD_30 
ROOT
ATOM      1  C   UNK d   0      58.863  70.262  99.438  0.00  0.00    -0.001 C 
ATOM      2  C   UNK d   0      59.947  70.619  99.095  0.00  0.00    -0.008 C 
ATOM      3  C   UNK d   0      61.356  71.078  98.715  0.00  0.00    -0.043 C 
ENDROOT
BRANCH   3   4
ATOM      4  C   UNK d   0      62.680  71.518  98.400  0.00  0.00     0.078 C 
BRANCH   4   5
ATOM      5  C   UNK d   0      62.905  71.946  97.055  0.00  0.00    -0.073 C 
BRANCH   5   6
ATOM      6  C   UNK d   0      63.197  72.042  95.665  0.00  0.00     0.135 A 
ATOM      7  C   UNK d   0      64.392  71.548  95.184  0.00  0.00     0.128 A 
ATOM      8  N   UNK d   0      64.717  71.585  93.870  0.00  0.00    -0.222 NA
ATOM      9  C   UNK d   0      63.834  72.124  93.030  0.00  0.00     0.185 A 
ATOM     10  C   UNK d   0      62.616  72.631  93.515  0.00  0.00     0.149 A 
ATOM     11  N   UNK d   0      64.189  72.135  91.752  0.00  0.00    -0.194 NA
ATOM     12  N   UNK d   0      62.283  72.593  94.848  0.00  0.00    -0.231 NA
ATOM     13  C   UNK d   0      61.828  73.155  92.499  0.00  0.00     0.174 A 
ATOM     14  N   UNK d   0      62.154  73.185  91.188  0.00  0.00    -0.199 NA
ATOM     15  N   UNK d   0      60.553  73.717  92.831  0.00  0.00    -0.078 NA
ATOM     16  C   UNK d   0      63.337  72.664  90.876  0.00  0.00     0.240 A 
ATOM     17  N   UNK d   0      63.722  72.669  89.504  0.00  0.00    -0.059 NA
ENDBRANCH   5   6
ENDBRANCH   4   5
BRANCH   4  18
ATOM     18  C   UNK d   0      63.736  71.433  99.425  0.00  0.00     0.015 A 
ATOM     19  C   UNK d   0      65.056  71.716  99.056  0.00  0.00     0.001 A 
ATOM     20  C   UNK d   0      66.093  71.680  99.980  0.00  0.00     0.005 A 
ATOM     21  C   UNK d   0      65.831  71.344 101.306  0.00  0.00     0.058 A 
ATOM     22  C   UNK d   0      64.521  71.039 101.688  0.00  0.00     0.005 A 
ATOM     23  C   UNK d   0      63.481  71.087 100.753  0.00  0.00     0.001 A 
BRANCH  21  24
ATOM     24  C   UNK d   0      66.968  71.394 102.265  0.00  0.00     0.280 C 
ATOM     25  O   UNK d   0      66.655  71.490 103.454  0.00  0.00    -0.265 OA
ATOM     26  N   GLU d   1      68.166  71.235 101.697  0.00  0.00    -0.193 NA
ATOM     27  CA  GLU d   1      69.270  71.740 102.323  0.00  0.00     0.190 C 
BRANCH  27  28
ATOM     28  CB  GLU d   1      70.523  71.428 101.679  0.00  0.00    -0.028 C 
BRANCH  28  29
ATOM     29  CG  GLU d   1      71.855  71.011 100.970  0.00  0.00     0.012 C 
BRANCH  29  30
ATOM     30  CD  GLU d   1      73.164  70.628 100.295  0.00  0.00     0.258 C 
ATOM     31  OE1 GLU d   1      73.123  70.306  99.063  0.00  0.00    -0.637 OA
ATOM     32  OE2 GLU d   1      74.220  70.654 101.010  0.00  0.00    -0.637 OA
ENDBRANCH  29  30
ENDBRANCH  28  29
ENDBRANCH  27  28
BRANCH  27  33
ATOM     33  C   GLU d   1      69.309  72.701 103.564  0.00  0.00     0.238 C 
ATOM     34  O   GLU d   1      69.612  72.168 104.683  0.00  0.00    -0.642 OA
ATOM     35  OXT GLU d   1      69.162  73.945 103.316  0.00  0.00    -0.642 OA
ENDBRANCH  27  33
ENDBRANCH  21  24
ENDBRANCH   4  18
ENDBRANCH   3   4
TORSDOF 9
ENDMDL
MODEL 3
REMARK VINA RESULT:      -7.6     15.978     19.545
REMARK  9 active torsions:
REMARK  status: ('A' for Active; 'I' for Inactive)
REMARK    1  A    between atoms: C_3  and  C_4 
REMARK    2  A    between atoms: C_4  and  C_5 
REMARK    3  A    between atoms: C_4  and  C_18 
REMARK    4  A    between atoms: C_5  and  C_6 
REMARK    5  A    between atoms: C_21  and  C_24 
REMARK       I    between atoms: C_24  and  N_26 
REMARK    6  A    between atoms: CA_27  and  CB_28 
REMARK    7  A    between atoms: CA_27  and  C_33 
REMARK    8  A    between atoms: CB_28  and  CG_29 
REMARK    9  A    between atoms: CG_29  and  CD_30 
ROOT
ATOM      1  C   UNK d   0      84.613  73.860  93.344  0.00  0.00    -0.001 C 
ATOM      2  C   UNK d   0      83.538  74.343  93.163  0.00  0.00    -0.008 C 
ATOM      3  C   UNK d   0      82.186  75.019  92.935  0.00  0.00    -0.043 C 
ENDROOT
BRANCH   3   4
ATOM      4  C   UNK d   0      80.936  75.686  92.736  0.00  0.00     0.078 C 
BRANCH   4   5
ATOM      5  C   UNK d   0      80.845  77.027  93.222  0.00  0.00    -0.073 C 
BRANCH   5   6
ATOM      6  C   UNK d   0      80.643  78.208  93.990  0.00  0.00     0.135 A 
ATOM      7  C   UNK d   0      79.415  78.839  93.959  0.00  0.00     0.128 A 
ATOM      8  N   UNK d   0      79.151  79.949  94.687  0.00  0.00    -0.222 NA
ATOM      9  C   UNK d   0      80.128  80.433  95.453  0.00  0.00     0.185 A 
ATOM     10  C   UNK d   0      81.381  79.796  95.487  0.00  0.00     0.149 A 
ATOM     11  N   UNK d   0      79.826  81.518  96.153  0.00  0.00    -0.194 NA
ATOM     12  N   UNK d   0      81.651  78.667  94.751  0.00  0.00    -0.231 NA
ATOM     13  C   UNK d   0      82.272  80.441  96.334  0.00  0.00     0.174 A 
ATOM     14  N   UNK d   0      82.002  81.547  97.063  0.00  0.00    -0.199 NA
ATOM     15  N   UNK d   0      83.597  79.917  96.476  0.00  0.00    -0.078 NA
ATOM     16  C   UNK d   0      80.773  82.037  96.933  0.00  0.00     0.240 A 
ATOM     17  N   UNK d   0      80.440  83.200  97.687  0.00  0.00    -0.059 NA
ENDBRANCH   5   6
ENDBRANCH   4   5
BRANCH   4  18
ATOM     18  C   UNK d   0      79.810  74.952  92.129  0.00  0.00     0.015 A 
ATOM     19  C   UNK d   0      79.782  73.557  92.234  0.00  0.00     0.001 A 
ATOM     20  C   UNK d   0      78.735  72.810  91.709  0.00  0.00     0.005 A 
ATOM     21  C   UNK d   0      77.689  73.448  91.048  0.00  0.00     0.058 A 
ATOM     22  C   UNK d   0      77.711  74.840  90.916  0.00  0.00     0.005 A 
ATOM     23  C   UNK d   0      78.764  75.586  91.457  0.00  0.00     0.001 A 
BRANCH  21  24
ATOM     24  C   UNK d   0      76.559  72.603  90.571  0.00  0.00     0.280 C 
ATOM     25  O   UNK d   0      75.433  73.060  90.772  0.00  0.00    -0.265 OA
ATOM     26  N   GLU d   1      76.942  71.508  89.910  0.00  0.00    -0.193 NA
ATOM     27  CA  GLU d   1      76.100  70.434  89.862  0.00  0.00     0.190 C 
BRANCH  27  28
ATOM     28  CB  GLU d   1      76.564  69.341  89.041  0.00  0.00    -0.028 C 
BRANCH  28  29
ATOM     29  CG  GLU d   1      77.140  68.158  88.193  0.00  0.00     0.012 C 
BRANCH  29  30
ATOM     30  CD  GLU d   1      77.727  67.013  87.380  0.00  0.00     0.258 C 
ATOM     31  OE1 GLU d   1      78.351  67.306  86.309  0.00  0.00    -0.637 OA
ATOM     32  OE2 GLU d   1      77.554  65.830  87.826  0.00  0.00    -0.637 OA
ENDBRANCH  29  30
ENDBRANCH  28  29
ENDBRANCH  27  28
BRANCH  27  33
ATOM     33  C   GLU d   1      74.778  70.217  90.682  0.00  0.00     0.238 C 
ATOM     34  O   GLU d   1      73.687  70.305  90.028  0.00  0.00    -0.642 OA
ATOM     35  OXT GLU d   1      74.924  69.847  91.896  0.00  0.00    -0.642 OA
ENDBRANCH  27  33
ENDBRANCH  21  24
ENDBRANCH   4  18
ENDBRANCH   3   4
TORSDOF 9
ENDMDL
MODEL 4
REMARK VINA RESULT:      -7.5      5.929     11.504
REMARK  9 active torsions:
REMARK  status: ('A' for Active; 'I' for Inactive)
REMARK    1  A    between atoms: C_3  and  C_4 
REMARK    2  A    between atoms: C_4  and  C_5 
REMARK    3  A    between atoms: C_4  and  C_18 
REMARK    4  A    between atoms: C_5  and  C_6 
REMARK    5  A    between atoms: C_21  and  C_24 
REMARK       I    between atoms: C_24  and  N_26 
REMARK    6  A    between atoms: CA_27  and  CB_28 
REMARK    7  A    between atoms: CA_27  and  C_33 
REMARK    8  A    between atoms: CB_28  and  CG_29 
REMARK    9  A    between atoms: CG_29  and  CD_30 
ROOT
ATOM      1  C   UNK d   0      70.354  83.530  94.971  0.00  0.00    -0.001 C 
ATOM      2  C   UNK d   0      69.936  84.392  95.680  0.00  0.00    -0.008 C 
ATOM      3  C   UNK d   0      69.347  85.497  96.558  0.00  0.00    -0.043 C 
ENDROOT
BRANCH   3   4
ATOM      4  C   UNK d   0      68.766  86.537  97.350  0.00  0.00     0.078 C 
BRANCH   4   5
ATOM      5  C   UNK d   0      67.910  87.455  96.668  0.00  0.00    -0.073 C 
BRANCH   5   6
ATOM      6  C   UNK d   0      67.025  88.112  95.767  0.00  0.00     0.135 A 
ATOM      7  C   UNK d   0      66.028  87.390  95.142  0.00  0.00     0.128 A 
ATOM      8  N   UNK d   0      65.139  87.961  94.296  0.00  0.00    -0.222 NA
ATOM      9  C   UNK d   0      65.250  89.270  94.074  0.00  0.00     0.185 A 
ATOM     10  C   UNK d   0      66.265  90.010  94.706  0.00  0.00     0.149 A 
ATOM     11  N   UNK d   0      64.357  89.790  93.244  0.00  0.00    -0.194 NA
ATOM     12  N   UNK d   0      67.167  89.433  95.567  0.00  0.00    -0.231 NA
ATOM     13  C   UNK d   0      66.228  91.353  94.353  0.00  0.00     0.174 A 
ATOM     14  N   UNK d   0      65.335  91.920  93.512  0.00  0.00    -0.199 NA
ATOM     15  N   UNK d   0      67.202  92.243  94.910  0.00  0.00    -0.078 NA
ATOM     16  C   UNK d   0      64.430  91.096  92.992  0.00  0.00     0.240 A 
ATOM     17  N   UNK d   0      63.464  91.650  92.103  0.00  0.00    -0.059 NA
ENDBRANCH   5   6
ENDBRANCH   4   5
BRANCH   4  18
ATOM     18  C   UNK d   0      69.134  86.656  98.773  0.00  0.00     0.015 A 
ATOM     19  C   UNK d   0      70.461  86.419  99.147  0.00  0.00     0.001 A 
ATOM     20  C   UNK d   0      70.877  86.541 100.467  0.00  0.00     0.005 A 
ATOM     21  C   UNK d   0      69.962  86.895 101.455  0.00  0.00     0.058 A 
ATOM     22  C   UNK d   0      68.627  87.116 101.102  0.00  0.00     0.005 A 
ATOM     23  C   UNK d   0      68.218  87.000  99.768  0.00  0.00     0.001 A 
BRANCH  21  24
ATOM     24  C   UNK d   0      70.480  87.083 102.838  0.00  0.00     0.280 C 
ATOM     25  O   UNK d   0      69.970  86.363 103.698  0.00  0.00    -0.265 OA
ATOM     26  N   GLU d   1      71.494  87.948 102.924  0.00  0.00    -0.193 NA
ATOM     27  CA  GLU d   1      71.726  88.582 104.111  0.00  0.00     0.190 C 
BRANCH  27  28
ATOM     28  CB  GLU d   1      72.901  89.418 104.128  0.00  0.00    -0.028 C 
BRANCH  28  29
ATOM     29  CG  GLU d   1      74.164  90.337 104.230  0.00  0.00     0.012 C 
BRANCH  29  30
ATOM     30  CD  GLU d   1      75.383  91.241 104.355  0.00  0.00     0.258 C 
ATOM     31  OE1 GLU d   1      75.465  91.984 105.387  0.00  0.00    -0.637 OA
ATOM     32  OE2 GLU d   1      76.244  91.195 103.416  0.00  0.00    -0.637 OA
ENDBRANCH  29  30
ENDBRANCH  28  29
ENDBRANCH  27  28
BRANCH  27  33
ATOM     33  C   GLU d   1      70.805  88.596 105.384  0.00  0.00     0.238 C 
ATOM     34  O   GLU d   1      71.230  87.946 106.396  0.00  0.00    -0.642 OA
ATOM     35  OXT GLU d   1      69.783  89.360 105.330  0.00  0.00    -0.642 OA
ENDBRANCH  27  33
ENDBRANCH  21  24
ENDBRANCH   4  18
ENDBRANCH   3   4
TORSDOF 9
ENDMDL
MODEL 5
REMARK VINA RESULT:      -7.3     16.360     20.278
REMARK  9 active torsions:
REMARK  status: ('A' for Active; 'I' for Inactive)
REMARK    1  A    between atoms: C_3  and  C_4 
REMARK    2  A    between atoms: C_4  and  C_5 
REMARK    3  A    between atoms: C_4  and  C_18 
REMARK    4  A    between atoms: C_5  and  C_6 
REMARK    5  A    between atoms: C_21  and  C_24 
REMARK       I    between atoms: C_24  and  N_26 
REMARK    6  A    between atoms: CA_27  and  CB_28 
REMARK    7  A    between atoms: CA_27  and  C_33 
REMARK    8  A    between atoms: CB_28  and  CG_29 
REMARK    9  A    between atoms: CG_29  and  CD_30 
ROOT
ATOM      1  C   UNK d   0      75.360  79.746  92.157  0.00  0.00    -0.001 C 
ATOM      2  C   UNK d   0      76.123  78.831  92.129  0.00  0.00    -0.008 C 
ATOM      3  C   UNK d   0      77.138  77.687  92.136  0.00  0.00    -0.043 C 
ENDROOT
BRANCH   3   4
ATOM      4  C   UNK d   0      78.114  76.642  92.160  0.00  0.00     0.078 C 
BRANCH   4   5
ATOM      5  C   UNK d   0      79.296  76.891  92.923  0.00  0.00    -0.073 C 
BRANCH   5   6
ATOM      6  C   UNK d   0      80.567  77.314  93.405  0.00  0.00     0.135 A 
ATOM      7  C   UNK d   0      81.688  77.135  92.620  0.00  0.00     0.128 A 
ATOM      8  N   UNK d   0      82.920  77.539  93.009  0.00  0.00    -0.222 NA
ATOM      9  C   UNK d   0      83.029  78.128  94.200  0.00  0.00     0.185 A 
ATOM     10  C   UNK d   0      81.892  78.311  95.005  0.00  0.00     0.149 A 
ATOM     11  N   UNK d   0      84.252  78.513  94.541  0.00  0.00    -0.194 NA
ATOM     12  N   UNK d   0      80.640  77.903  94.611  0.00  0.00    -0.231 NA
ATOM     13  C   UNK d   0      82.198  78.935  96.207  0.00  0.00     0.174 A 
ATOM     14  N   UNK d   0      83.429  79.342  96.590  0.00  0.00    -0.199 NA
ATOM     15  N   UNK d   0      81.145  79.190  97.144  0.00  0.00    -0.078 NA
ATOM     16  C   UNK d   0      84.409  79.106  95.722  0.00  0.00     0.240 A 
ATOM     17  N   UNK d   0      85.724  79.522  96.081  0.00  0.00    -0.059 NA
ENDBRANCH   5   6
ENDBRANCH   4   5
BRANCH   4  18
ATOM     18  C   UNK d   0      77.897  75.427  91.353  0.00  0.00     0.015 A 
ATOM     19  C   UNK d   0      76.613  75.167  90.860  0.00  0.00     0.001 A 
ATOM     20  C   UNK d   0      76.349  74.054  90.072  0.00  0.00     0.005 A 
ATOM     21  C   UNK d   0      77.371  73.160  89.766  0.00  0.00     0.058 A 
ATOM     22  C   UNK d   0      78.656  73.393  90.267  0.00  0.00     0.005 A 
ATOM     23  C   UNK d   0      78.916  74.522  91.052  0.00  0.00     0.001 A 
BRANCH  21  24
ATOM     24  C   UNK d   0      77.045  72.027  88.857  0.00  0.00     0.280 C 
ATOM     25  O   UNK d   0      76.401  72.324  87.849  0.00  0.00    -0.265 OA
ATOM     26  N   GLU d   1      77.583  70.862  89.226  0.00  0.00    -0.193 NA
ATOM     27  CA  GLU d   1      76.994  69.700  88.816  0.00  0.00     0.190 C 
BRANCH  27  28
ATOM     28  CB  GLU d   1      77.707  68.501  89.185  0.00  0.00    -0.028 C 
BRANCH  28  29
ATOM     29  CG  GLU d   1      78.483  67.179  89.502  0.00  0.00     0.012 C 
BRANCH  29  30
ATOM     30  CD  GLU d   1      79.213  65.881  89.821  0.00  0.00     0.258 C 
ATOM     31  OE1 GLU d   1      79.957  65.383  88.916  0.00  0.00    -0.637 OA
ATOM     32  OE2 GLU d   1      79.030  65.376  90.977  0.00  0.00    -0.637 OA
ENDBRANCH  29  30
ENDBRANCH  28  29
ENDBRANCH  27  28
BRANCH  27  33
ATOM     33  C   GLU d   1      75.599  69.530  88.115  0.00  0.00     0.238 C 
ATOM     34  O   GLU d   1      75.622  69.169  86.892  0.00  0.00    -0.642 OA
ATOM     35  OXT GLU d   1      74.574  69.643  88.868  0.00  0.00    -0.642 OA
ENDBRANCH  27  33
ENDBRANCH  21  24
ENDBRANCH   4  18
ENDBRANCH   3   4
TORSDOF 9
ENDMDL
MODEL 6
REMARK VINA RESULT:      -7.3     10.177     13.739
REMARK  9 active torsions:
REMARK  status: ('A' for Active; 'I' for Inactive)
REMARK    1  A    between atoms: C_3  and  C_4 
REMARK    2  A    between atoms: C_4  and  C_5 
REMARK    3  A    between atoms: C_4  and  C_18 
REMARK    4  A    between atoms: C_5  and  C_6 
REMARK    5  A    between atoms: C_21  and  C_24 
REMARK       I    between atoms: C_24  and  N_26 
REMARK    6  A    between atoms: CA_27  and  CB_28 
REMARK    7  A    between atoms: CA_27  and  C_33 
REMARK    8  A    between atoms: CB_28  and  CG_29 
REMARK    9  A    between atoms: CG_29  and  CD_30 
ROOT
ATOM      1  C   UNK d   0      65.178  83.545  90.666  0.00  0.00    -0.001 C 
ATOM      2  C   UNK d   0      65.833  82.564  90.838  0.00  0.00    -0.008 C 
ATOM      3  C   UNK d   0      66.671  81.294  90.996  0.00  0.00    -0.043 C 
ENDROOT
BRANCH   3   4
ATOM      4  C   UNK d   0      67.442  80.095  91.106  0.00  0.00     0.078 C 
BRANCH   4   5
ATOM      5  C   UNK d   0      68.841  80.257  91.352  0.00  0.00    -0.073 C 
BRANCH   5   6
ATOM      6  C   UNK d   0      70.125  80.638  91.833  0.00  0.00     0.135 A 
ATOM      7  C   UNK d   0      71.096  79.676  92.020  0.00  0.00     0.128 A 
ATOM      8  N   UNK d   0      72.344  79.977  92.450  0.00  0.00    -0.222 NA
ATOM      9  C   UNK d   0      72.621  81.258  92.695  0.00  0.00     0.185 A 
ATOM     10  C   UNK d   0      71.635  82.242  92.508  0.00  0.00     0.149 A 
ATOM     11  N   UNK d   0      73.855  81.510  93.109  0.00  0.00    -0.194 NA
ATOM     12  N   UNK d   0      70.368  81.938  92.070  0.00  0.00    -0.231 NA
ATOM     13  C   UNK d   0      72.102  83.513  92.816  0.00  0.00     0.174 A 
ATOM     14  N   UNK d   0      73.350  83.810  93.239  0.00  0.00    -0.199 NA
ATOM     15  N   UNK d   0      71.214  84.629  92.682  0.00  0.00    -0.078 NA
ATOM     16  C   UNK d   0      74.177  82.776  93.366  0.00  0.00     0.240 A 
ATOM     17  N   UNK d   0      75.506  83.042  93.805  0.00  0.00    -0.059 NA
ENDBRANCH   5   6
ENDBRANCH   4   5
BRANCH   4  18
ATOM     18  C   UNK d   0      66.791  78.790  90.885  0.00  0.00     0.015 A 
ATOM     19  C   UNK d   0      67.386  77.642  91.419  0.00  0.00     0.001 A 
ATOM     20  C   UNK d   0      66.809  76.387  91.269  0.00  0.00     0.005 A 
ATOM     21  C   UNK d   0      65.617  76.250  90.563  0.00  0.00     0.058 A 
ATOM     22  C   UNK d   0      65.018  77.385  90.006  0.00  0.00     0.005 A 
ATOM     23  C   UNK d   0      65.601  78.647  90.170  0.00  0.00     0.001 A 
BRANCH  21  24
ATOM     24  C   UNK d   0      65.007  74.894  90.499  0.00  0.00     0.280 C 
ATOM     25  O   UNK d   0      64.616  74.540  89.385  0.00  0.00    -0.265 OA
ATOM     26  N   GLU d   1      65.058  74.221  91.651  0.00  0.00    -0.193 NA
ATOM     27  CA  GLU d   1      64.142  73.235  91.884  0.00  0.00     0.190 C 
BRANCH  27  28
ATOM     28  CB  GLU d   1      64.344  72.503  93.111  0.00  0.00    -0.028 C 
BRANCH  28  29
ATOM     29  CG  GLU d   1      64.608  71.652  94.398  0.00  0.00     0.012 C 
BRANCH  29  30
ATOM     30  CD  GLU d   1      64.835  70.820  95.653  0.00  0.00     0.258 C 
ATOM     31  OE1 GLU d   1      63.885  70.755  96.500  0.00  0.00    -0.637 OA
ATOM     32  OE2 GLU d   1      65.965  70.242  95.775  0.00  0.00    -0.637 OA
ENDBRANCH  29  30
ENDBRANCH  28  29
ENDBRANCH  27  28
BRANCH  27  33
ATOM     33  C   GLU d   1      62.857  72.905  91.044  0.00  0.00     0.238 C 
ATOM     34  O   GLU d   1      63.000  72.060  90.099  0.00  0.00    -0.642 OA
ATOM     35  OXT GLU d   1      61.764  73.414  91.467  0.00  0.00    -0.642 OA
ENDBRANCH  27  33
ENDBRANCH  21  24
ENDBRANCH   4  18
ENDBRANCH   3   4
TORSDOF 9
ENDMDL
MODEL 7
REMARK VINA RESULT:      -7.3     17.264     19.455
REMARK  9 active torsions:
REMARK  status: ('A' for Active; 'I' for Inactive)
REMARK    1  A    between atoms: C_3  and  C_4 
REMARK    2  A    between atoms: C_4  and  C_5 
REMARK    3  A    between atoms: C_4  and  C_18 
REMARK    4  A    between atoms: C_5  and  C_6 
REMARK    5  A    between atoms: C_21  and  C_24 
REMARK       I    between atoms: C_24  and  N_26 
REMARK    6  A    between atoms: CA_27  and  CB_28 
REMARK    7  A    between atoms: CA_27  and  C_33 
REMARK    8  A    between atoms: CB_28  and  CG_29 
REMARK    9  A    between atoms: CG_29  and  CD_30 
ROOT
ATOM      1  C   UNK d   0      85.504  72.608  93.813  0.00  0.00    -0.001 C 
ATOM      2  C   UNK d   0      84.687  73.460  93.655  0.00  0.00    -0.008 C 
ATOM      3  C   UNK d   0      83.684  74.595  93.441  0.00  0.00    -0.043 C 
ENDROOT
BRANCH   3   4
ATOM      4  C   UNK d   0      82.776  75.684  93.247  0.00  0.00     0.078 C 
BRANCH   4   5
ATOM      5  C   UNK d   0      83.222  76.970  93.681  0.00  0.00    -0.073 C 
BRANCH   5   6
ATOM      6  C   UNK d   0      83.713  78.090  94.410  0.00  0.00     0.135 A 
ATOM      7  C   UNK d   0      85.073  78.247  94.585  0.00  0.00     0.128 A 
ATOM      8  N   UNK d   0      85.604  79.303  95.244  0.00  0.00    -0.222 NA
ATOM      9  C   UNK d   0      84.761  80.212  95.735  0.00  0.00     0.185 A 
ATOM     10  C   UNK d   0      83.374  80.056  95.562  0.00  0.00     0.149 A 
ATOM     11  N   UNK d   0      85.322  81.233  96.369  0.00  0.00    -0.194 NA
ATOM     12  N   UNK d   0      82.834  78.986  94.891  0.00  0.00    -0.231 NA
ATOM     13  C   UNK d   0      82.657  81.094  96.142  0.00  0.00     0.174 A 
ATOM     14  N   UNK d   0      83.191  82.150  96.795  0.00  0.00    -0.199 NA
ATOM     15  N   UNK d   0      81.227  81.080  96.057  0.00  0.00    -0.078 NA
ATOM     16  C   UNK d   0      84.518  82.166  96.876  0.00  0.00     0.240 A 
ATOM     17  N   UNK d   0      85.127  83.263  97.552  0.00  0.00    -0.059 NA
ENDBRANCH   5   6
ENDBRANCH   4   5
BRANCH   4  18
ATOM     18  C   UNK d   0      81.433  75.419  92.701  0.00  0.00     0.015 A 
ATOM     19  C   UNK d   0      81.023  74.092  92.533  0.00  0.00     0.001 A 
ATOM     20  C   UNK d   0      79.760  73.776  92.049  0.00  0.00     0.005 A 
ATOM     21  C   UNK d   0      78.873  74.793  91.706  0.00  0.00     0.058 A 
ATOM     22  C   UNK d   0      79.272  76.126  91.849  0.00  0.00     0.005 A 
ATOM     23  C   UNK d   0      80.543  76.435  92.347  0.00  0.00     0.001 A 
BRANCH  21  24
ATOM     24  C   UNK d   0      77.508  74.395  91.263  0.00  0.00     0.280 C 
ATOM     25  O   UNK d   0      76.596  75.146  91.616  0.00  0.00    -0.265 OA
ATOM     26  N   GLU d   1      77.486  73.324  90.467  0.00  0.00    -0.193 NA
ATOM     27  CA  GLU d   1      76.350  72.570  90.399  0.00  0.00     0.190 C 
BRANCH  27  28
ATOM     28  CB  GLU d   1      76.395  71.496  89.437  0.00  0.00    -0.028 C 
BRANCH  28  29
ATOM     29  CG  GLU d   1      76.528  70.345  88.384  0.00  0.00     0.012 C 
BRANCH  29  30
ATOM     30  CD  GLU d   1      76.641  69.207  87.379  0.00  0.00     0.258 C 
ATOM     31  OE1 GLU d   1      75.954  69.291  86.310  0.00  0.00    -0.637 OA
ATOM     32  OE2 GLU d   1      77.419  68.241  87.675  0.00  0.00    -0.637 OA
ENDBRANCH  29  30
ENDBRANCH  28  29
ENDBRANCH  27  28
BRANCH  27  33
ATOM     33  C   GLU d   1      75.081  72.668  91.319  0.00  0.00     0.238 C 
ATOM     34  O   GLU d   1      74.018  73.113  90.772  0.00  0.00    -0.642 OA
ATOM     35  OXT GLU d   1      75.198  72.174  92.492  0.00  0.00    -0.642 OA
ENDBRANCH  27  33
ENDBRANCH  21  24
ENDBRANCH   4  18
ENDBRANCH   3   4
TORSDOF 9
ENDMDL
MODEL 8
REMARK VINA RESULT:      -7.3     14.111     18.928
REMARK  9 active torsions:
REMARK  status: ('A' for Active; 'I' for Inactive)
REMARK    1  A    between atoms: C_3  and  C_4 
REMARK    2  A    between atoms: C_4  and  C_5 
REMARK    3  A    between atoms: C_4  and  C_18 
REMARK    4  A    between atoms: C_5  and  C_6 
REMARK    5  A    between atoms: C_21  and  C_24 
REMARK       I    between atoms: C_24  and  N_26 
REMARK    6  A    between atoms: CA_27  and  CB_28 
REMARK    7  A    between atoms: CA_27  and  C_33 
REMARK    8  A    between atoms: CB_28  and  CG_29 
REMARK    9  A    between atoms: CG_29  and  CD_30 
ROOT
ATOM      1  C   UNK d   0      70.683  81.134  91.720  0.00  0.00    -0.001 C 
ATOM      2  C   UNK d   0      70.470  79.967  91.605  0.00  0.00    -0.008 C 
ATOM      3  C   UNK d   0      70.224  78.460  91.513  0.00  0.00    -0.043 C 
ENDROOT
BRANCH   3   4
ATOM      4  C   UNK d   0      70.021  77.046  91.457  0.00  0.00     0.078 C 
BRANCH   4   5
ATOM      5  C   UNK d   0      68.666  76.594  91.501  0.00  0.00    -0.073 C 
BRANCH   5   6
ATOM      6  C   UNK d   0      67.463  75.840  91.597  0.00  0.00     0.135 A 
ATOM      7  C   UNK d   0      67.445  74.675  92.338  0.00  0.00     0.128 A 
ATOM      8  N   UNK d   0      66.327  73.928  92.491  0.00  0.00    -0.222 NA
ATOM      9  C   UNK d   0      65.213  74.353  91.893  0.00  0.00     0.185 A 
ATOM     10  C   UNK d   0      65.226  75.537  91.136  0.00  0.00     0.149 A 
ATOM     11  N   UNK d   0      64.140  73.595  92.072  0.00  0.00    -0.194 NA
ATOM     12  N   UNK d   0      66.360  76.299  90.981  0.00  0.00    -0.231 NA
ATOM     13  C   UNK d   0      63.982  75.819  90.587  0.00  0.00     0.174 A 
ATOM     14  N   UNK d   0      62.866  75.072  90.746  0.00  0.00    -0.199 NA
ATOM     15  N   UNK d   0      63.829  76.993  89.781  0.00  0.00    -0.078 NA
ATOM     16  C   UNK d   0      63.005  73.981  91.493  0.00  0.00     0.240 A 
ATOM     17  N   UNK d   0      61.853  73.165  91.693  0.00  0.00    -0.059 NA
ENDBRANCH   5   6
ENDBRANCH   4   5
BRANCH   4  18
ATOM     18  C   UNK d   0      71.189  76.146  91.441  0.00  0.00     0.015 A 
ATOM     19  C   UNK d   0      72.422  76.650  91.012  0.00  0.00     0.001 A 
ATOM     20  C   UNK d   0      73.565  75.861  90.999  0.00  0.00     0.005 A 
ATOM     21  C   UNK d   0      73.497  74.532  91.408  0.00  0.00     0.058 A 
ATOM     22  C   UNK d   0      72.269  74.005  91.821  0.00  0.00     0.005 A 
ATOM     23  C   UNK d   0      71.124  74.810  91.841  0.00  0.00     0.001 A 
BRANCH  21  24
ATOM     24  C   UNK d   0      74.768  73.757  91.443  0.00  0.00     0.280 C 
ATOM     25  O   UNK d   0      75.501  73.984  92.408  0.00  0.00    -0.265 OA
ATOM     26  N   GLU d   1      74.883  72.858  90.463  0.00  0.00    -0.193 NA
ATOM     27  CA  GLU d   1      76.129  72.456  90.074  0.00  0.00     0.190 C 
BRANCH  27  28
ATOM     28  CB  GLU d   1      76.142  71.410  89.080  0.00  0.00    -0.028 C 
BRANCH  28  29
ATOM     29  CG  GLU d   1      76.162  70.336  87.941  0.00  0.00     0.012 C 
BRANCH  29  30
ATOM     30  CD  GLU d   1      76.171  69.271  86.853  0.00  0.00     0.258 C 
ATOM     31  OE1 GLU d   1      76.504  68.088  87.186  0.00  0.00    -0.637 OA
ATOM     32  OE2 GLU d   1      75.842  69.636  85.676  0.00  0.00    -0.637 OA
ENDBRANCH  29  30
ENDBRANCH  28  29
ENDBRANCH  27  28
BRANCH  27  33
ATOM     33  C   GLU d   1      77.509  73.080  90.491  0.00  0.00     0.238 C 
ATOM     34  O   GLU d   1      78.194  72.420  91.341  0.00  0.00    -0.642 OA
ATOM     35  OXT GLU d   1      77.873  74.120  89.846  0.00  0.00    -0.642 OA
ENDBRANCH  27  33
ENDBRANCH  21  24
ENDBRANCH   4  18
ENDBRANCH   3   4
TORSDOF 9
ENDMDL
MODEL 9
REMARK VINA RESULT:      -7.2     15.017     19.556
REMARK  9 active torsions:
REMARK  status: ('A' for Active; 'I' for Inactive)
REMARK    1  A    between atoms: C_3  and  C_4 
REMARK    2  A    between atoms: C_4  and  C_5 
REMARK    3  A    between atoms: C_4  and  C_18 
REMARK    4  A    between atoms: C_5  and  C_6 
REMARK    5  A    between atoms: C_21  and  C_24 
REMARK       I    between atoms: C_24  and  N_26 
REMARK    6  A    between atoms: CA_27  and  CB_28 
REMARK    7  A    between atoms: CA_27  and  C_33 
REMARK    8  A    between atoms: CB_28  and  CG_29 
REMARK    9  A    between atoms: CG_29  and  CD_30 
ROOT
ATOM      1  C   UNK d   0      59.064  70.470  99.614  0.00  0.00    -0.001 C 
ATOM      2  C   UNK d   0      60.125  70.851  99.226  0.00  0.00    -0.008 C 
ATOM      3  C   UNK d   0      61.507  71.336  98.788  0.00  0.00    -0.043 C 
ENDROOT
BRANCH   3   4
ATOM      4  C   UNK d   0      62.809  71.798  98.417  0.00  0.00     0.078 C 
BRANCH   4   5
ATOM      5  C   UNK d   0      62.992  72.159  97.047  0.00  0.00    -0.073 C 
BRANCH   5   6
ATOM      6  C   UNK d   0      63.257  72.189  95.649  0.00  0.00     0.135 A 
ATOM      7  C   UNK d   0      64.432  71.650  95.166  0.00  0.00     0.128 A 
ATOM      8  N   UNK d   0      64.732  71.623  93.846  0.00  0.00    -0.222 NA
ATOM      9  C   UNK d   0      63.843  72.144  93.000  0.00  0.00     0.185 A 
ATOM     10  C   UNK d   0      62.645  72.697  93.487  0.00  0.00     0.149 A 
ATOM     11  N   UNK d   0      64.172  72.094  91.717  0.00  0.00    -0.194 NA
ATOM     12  N   UNK d   0      62.338  72.723  94.826  0.00  0.00    -0.231 NA
ATOM     13  C   UNK d   0      61.847  73.194  92.464  0.00  0.00     0.174 A 
ATOM     14  N   UNK d   0      62.148  73.161  91.147  0.00  0.00    -0.199 NA
ATOM     15  N   UNK d   0      60.591  73.797  92.796  0.00  0.00    -0.078 NA
ATOM     16  C   UNK d   0      63.314  72.603  90.836  0.00  0.00     0.240 A 
ATOM     17  N   UNK d   0      63.671  72.541  89.457  0.00  0.00    -0.059 NA
ENDBRANCH   5   6
ENDBRANCH   4   5
BRANCH   4  18
ATOM     18  C   UNK d   0      63.890  71.802  99.420  0.00  0.00     0.015 A 
ATOM     19  C   UNK d   0      65.200  72.055  98.997  0.00  0.00     0.001 A 
ATOM     20  C   UNK d   0      66.259  72.099  99.896  0.00  0.00     0.005 A 
ATOM     21  C   UNK d   0      66.030  71.875 101.251  0.00  0.00     0.058 A 
ATOM     22  C   UNK d   0      64.730  71.601 101.689  0.00  0.00     0.005 A 
ATOM     23  C   UNK d   0      63.668  71.568 100.778  0.00  0.00     0.001 A 
BRANCH  21  24
ATOM     24  C   UNK d   0      67.189  72.008 102.175  0.00  0.00     0.280 C 
ATOM     25  O   UNK d   0      67.257  71.160 103.067  0.00  0.00    -0.265 OA
ATOM     26  N   GLU d   1      68.040  72.981 101.843  0.00  0.00    -0.193 NA
ATOM     27  CA  GLU d   1      68.826  73.536 102.812  0.00  0.00     0.190 C 
BRANCH  27  28
ATOM     28  CB  GLU d   1      69.779  74.507 102.332  0.00  0.00    -0.028 C 
BRANCH  28  29
ATOM     29  CG  GLU d   1      70.870  75.498 101.805  0.00  0.00     0.012 C 
BRANCH  29  30
ATOM     30  CD  GLU d   1      71.951  76.441 101.295  0.00  0.00     0.258 C 
ATOM     31  OE1 GLU d   1      71.623  77.651 101.068  0.00  0.00    -0.637 OA
ATOM     32  OE2 GLU d   1      73.118  75.956 101.126  0.00  0.00    -0.637 OA
ENDBRANCH  29  30
ENDBRANCH  28  29
ENDBRANCH  27  28
BRANCH  27  33
ATOM     33  C   GLU d   1      68.720  73.327 104.365  0.00  0.00     0.238 C 
ATOM     34  O   GLU d   1      69.563  72.524 104.886  0.00  0.00    -0.642 OA
ATOM     35  OXT GLU d   1      67.886  74.076 104.977  0.00  0.00    -0.642 OA
ENDBRANCH  27  33
ENDBRANCH  21  24
ENDBRANCH   4  18
ENDBRANCH   3   4
TORSDOF 9
ENDMDL
MODEL 10
REMARK VINA RESULT:      -7.1     15.299     19.176
REMARK  9 active torsions:
REMARK  status: ('A' for Active; 'I' for Inactive)
REMARK    1  A    between atoms: C_3  and  C_4 
REMARK    2  A    between atoms: C_4  and  C_5 
REMARK    3  A    between atoms: C_4  and  C_18 
REMARK    4  A    between atoms: C_5  and  C_6 
REMARK    5  A    between atoms: C_21  and  C_24 
REMARK       I    between atoms: C_24  and  N_26 
REMARK    6  A    between atoms: CA_27  and  CB_28 
REMARK    7  A    between atoms: CA_27  and  C_33 
REMARK    8  A    between atoms: CB_28  and  CG_29 
REMARK    9  A    between atoms: CG_29  and  CD_30 
ROOT
ATOM      1  C   UNK d   0      78.980  76.264  90.494  0.00  0.00    -0.001 C 
ATOM      2  C   UNK d   0      78.045  75.525  90.493  0.00  0.00    -0.008 C 
ATOM      3  C   UNK d   0      76.809  74.624  90.513  0.00  0.00    -0.043 C 
ENDROOT
BRANCH   3   4
ATOM      4  C   UNK d   0      75.635  73.809  90.556  0.00  0.00     0.078 C 
BRANCH   4   5
ATOM      5  C   UNK d   0      75.816  72.416  90.294  0.00  0.00    -0.073 C 
BRANCH   5   6
ATOM      6  C   UNK d   0      76.325  71.104  90.082  0.00  0.00     0.135 A 
ATOM      7  C   UNK d   0      76.854  70.398  91.143  0.00  0.00     0.128 A 
ATOM      8  N   UNK d   0      77.330  69.137  91.012  0.00  0.00    -0.222 NA
ATOM      9  C   UNK d   0      77.274  68.578  89.803  0.00  0.00     0.185 A 
ATOM     10  C   UNK d   0      76.738  69.294  88.718  0.00  0.00     0.149 A 
ATOM     11  N   UNK d   0      77.746  67.342  89.719  0.00  0.00    -0.194 NA
ATOM     12  N   UNK d   0      76.253  70.573  88.849  0.00  0.00    -0.231 NA
ATOM     13  C   UNK d   0      76.766  68.556  87.542  0.00  0.00     0.174 A 
ATOM     14  N   UNK d   0      77.237  67.295  87.416  0.00  0.00    -0.199 NA
ATOM     15  N   UNK d   0      76.259  69.147  86.340  0.00  0.00    -0.078 NA
ATOM     16  C   UNK d   0      77.710  66.743  88.530  0.00  0.00     0.240 A 
ATOM     17  N   UNK d   0      78.213  65.412  88.447  0.00  0.00    -0.059 NA
ENDBRANCH   5   6
ENDBRANCH   4   5
BRANCH   4  18
ATOM     18  C   UNK d   0      74.321  74.441  90.779  0.00  0.00     0.015 A 
ATOM     19  C   UNK d   0      74.171  75.802  90.490  0.00  0.00     0.001 A 
ATOM     20  C   UNK d   0      72.953  76.449  90.653  0.00  0.00     0.005 A 
ATOM     21  C   UNK d   0      71.849  75.745  91.127  0.00  0.00     0.058 A 
ATOM     22  C   UNK d   0      71.986  74.389  91.440  0.00  0.00     0.005 A 
ATOM     23  C   UNK d   0      73.214  73.742  91.263  0.00  0.00     0.001 A 
BRANCH  21  24
ATOM     24  C   UNK d   0      70.553  76.473  91.210  0.00  0.00     0.280 C 
ATOM     25  O   UNK d   0      70.615  77.691  91.027  0.00  0.00    -0.265 OA
ATOM     26  N   GLU d   1      69.494  75.678  91.383  0.00  0.00    -0.193 NA
ATOM     27  CA  GLU d   1      68.367  76.190  91.960  0.00  0.00     0.190 C 
BRANCH  27  28
ATOM     28  CB  GLU d   1      67.249  75.280  92.010  0.00  0.00    -0.028 C 
BRANCH  28  29
ATOM     29  CG  GLU d   1      66.060  74.262  91.988  0.00  0.00     0.012 C 
BRANCH  29  30
ATOM     30  CD  GLU d   1      64.884  73.295  91.966  0.00  0.00     0.258 C 
ATOM     31  OE1 GLU d   1      63.803  73.691  91.421  0.00  0.00    -0.637 OA
ATOM     32  OE2 GLU d   1      65.059  72.149  92.496  0.00  0.00    -0.637 OA
ENDBRANCH  29  30
ENDBRANCH  28  29
ENDBRANCH  27  28
BRANCH  27  33
ATOM     33  C   GLU d   1      68.203  77.582  92.668  0.00  0.00     0.238 C 
ATOM     34  O   GLU d   1      67.538  78.465  92.032  0.00  0.00    -0.642 OA
ATOM     35  OXT GLU d   1      68.639  77.658  93.866  0.00  0.00    -0.642 OA
ENDBRANCH  27  33
ENDBRANCH  21  24
ENDBRANCH   4  18
ENDBRANCH   3   4
TORSDOF 9
ENDMDL
MODEL 11
REMARK VINA RESULT:      -7.1     15.401     19.730
REMARK  9 active torsions:
REMARK  status: ('A' for Active; 'I' for Inactive)
REMARK    1  A    between atoms: C_3  and  C_4 
REMARK    2  A    between atoms: C_4  and  C_5 
REMARK    3  A    between atoms: C_4  and  C_18 
REMARK    4  A    between atoms: C_5  and  C_6 
REMARK    5  A    between atoms: C_21  and  C_24 
REMARK       I    between atoms: C_24  and  N_26 
REMARK    6  A    between atoms: CA_27  and  CB_28 
REMARK    7  A    between atoms: CA_27  and  C_33 
REMARK    8  A    between atoms: CB_28  and  CG_29 
REMARK    9  A    between atoms: CG_29  and  CD_30 
ROOT
ATOM      1  C   UNK d   0      81.870  76.696  94.127  0.00  0.00    -0.001 C 
ATOM      2  C   UNK d   0      80.863  76.654  93.491  0.00  0.00    -0.008 C 
ATOM      3  C   UNK d   0      79.545  76.566  92.720  0.00  0.00    -0.043 C 
ENDROOT
BRANCH   3   4
ATOM      4  C   UNK d   0      78.300  76.453  92.024  0.00  0.00     0.078 C 
BRANCH   4   5
ATOM      5  C   UNK d   0      77.352  77.501  92.238  0.00  0.00    -0.073 C 
BRANCH   5   6
ATOM      6  C   UNK d   0      76.281  78.434  92.155  0.00  0.00     0.135 A 
ATOM      7  C   UNK d   0      74.981  77.995  92.296  0.00  0.00     0.128 A 
ATOM      8  N   UNK d   0      73.921  78.836  92.254  0.00  0.00    -0.222 NA
ATOM      9  C   UNK d   0      74.168  80.132  92.066  0.00  0.00     0.185 A 
ATOM     10  C   UNK d   0      75.490  80.585  91.918  0.00  0.00     0.149 A 
ATOM     11  N   UNK d   0      73.103  80.921  92.035  0.00  0.00    -0.194 NA
ATOM     12  N   UNK d   0      76.568  79.733  91.964  0.00  0.00    -0.231 NA
ATOM     13  C   UNK d   0      75.553  81.959  91.728  0.00  0.00     0.174 A 
ATOM     14  N   UNK d   0      74.492  82.796  91.691  0.00  0.00    -0.199 NA
ATOM     15  N   UNK d   0      76.833  82.578  91.556  0.00  0.00    -0.078 NA
ATOM     16  C   UNK d   0      73.302  82.225  91.850  0.00  0.00     0.240 A 
ATOM     17  N   UNK d   0      72.153  83.069  91.823  0.00  0.00    -0.059 NA
ENDBRANCH   5   6
ENDBRANCH   4   5
BRANCH   4  18
ATOM     18  C   UNK d   0      78.032  75.254  91.209  0.00  0.00     0.015 A 
ATOM     19  C   UNK d   0      76.731  75.035  90.741  0.00  0.00     0.001 A 
ATOM     20  C   UNK d   0      76.419  73.940  89.946  0.00  0.00     0.005 A 
ATOM     21  C   UNK d   0      77.410  73.022  89.608  0.00  0.00     0.058 A 
ATOM     22  C   UNK d   0      78.711  73.214  90.082  0.00  0.00     0.005 A 
ATOM     23  C   UNK d   0      79.019  74.326  90.875  0.00  0.00     0.001 A 
BRANCH  21  24
ATOM     24  C   UNK d   0      77.033  71.909  88.692  0.00  0.00     0.280 C 
ATOM     25  O   UNK d   0      76.353  72.233  87.716  0.00  0.00    -0.265 OA
ATOM     26  N   GLU d   1      77.569  70.731  89.020  0.00  0.00    -0.193 NA
ATOM     27  CA  GLU d   1      76.950  69.584  88.614  0.00  0.00     0.190 C 
BRANCH  27  28
ATOM     28  CB  GLU d   1      77.661  68.370  88.933  0.00  0.00    -0.028 C 
BRANCH  28  29
ATOM     29  CG  GLU d   1      78.391  67.014  89.216  0.00  0.00     0.012 C 
BRANCH  29  30
ATOM     30  CD  GLU d   1      79.110  65.696  89.463  0.00  0.00     0.258 C 
ATOM     31  OE1 GLU d   1      78.402  64.640  89.540  0.00  0.00    -0.637 OA
ATOM     32  OE2 GLU d   1      80.380  65.735  89.577  0.00  0.00    -0.637 OA
ENDBRANCH  29  30
ENDBRANCH  28  29
ENDBRANCH  27  28
BRANCH  27  33
ATOM     33  C   GLU d   1      75.526  69.444  87.966  0.00  0.00     0.238 C 
ATOM     34  O   GLU d   1      74.531  69.646  88.738  0.00  0.00    -0.642 OA
ATOM     35  OXT GLU d   1      75.499  69.269  86.701  0.00  0.00    -0.642 OA
ENDBRANCH  27  33
ENDBRANCH  21  24
ENDBRANCH   4  18
ENDBRANCH   3   4
TORSDOF 9
ENDMDL
MODEL 12
REMARK VINA RESULT:      -7.0     16.946     21.604
REMARK  9 active torsions:
REMARK  status: ('A' for Active; 'I' for Inactive)
REMARK    1  A    between atoms: C_3  and  C_4 
REMARK    2  A    between atoms: C_4  and  C_5 
REMARK    3  A    between atoms: C_4  and  C_18 
REMARK    4  A    between atoms: C_5  and  C_6 
REMARK    5  A    between atoms: C_21  and  C_24 
REMARK       I    between atoms: C_24  and  N_26 
REMARK    6  A    between atoms: CA_27  and  CB_28 
REMARK    7  A    between atoms: CA_27  and  C_33 
REMARK    8  A    between atoms: CB_28  and  CG_29 
REMARK    9  A    between atoms: CG_29  and  CD_30 
ROOT
ATOM      1  C   UNK d   0      72.805  75.771  90.995  0.00  0.00    -0.001 C 
ATOM      2  C   UNK d   0      73.950  75.448  90.923  0.00  0.00    -0.008 C 
ATOM      3  C   UNK d   0      75.407  75.006  90.775  0.00  0.00    -0.043 C 
ENDROOT
BRANCH   3   4
ATOM      4  C   UNK d   0      76.757  74.566  90.609  0.00  0.00     0.078 C 
BRANCH   4   5
ATOM      5  C   UNK d   0      76.948  73.368  89.852  0.00  0.00    -0.073 C 
BRANCH   5   6
ATOM      6  C   UNK d   0      76.983  72.031  89.365  0.00  0.00     0.135 A 
ATOM      7  C   UNK d   0      76.464  71.746  88.119  0.00  0.00     0.128 A 
ATOM      8  N   UNK d   0      76.491  70.500  87.588  0.00  0.00    -0.222 NA
ATOM      9  C   UNK d   0      77.044  69.530  88.317  0.00  0.00     0.185 A 
ATOM     10  C   UNK d   0      77.573  69.815  89.588  0.00  0.00     0.149 A 
ATOM     11  N   UNK d   0      77.055  68.328  87.758  0.00  0.00    -0.194 NA
ATOM     12  N   UNK d   0      77.548  71.079  90.127  0.00  0.00    -0.231 NA
ATOM     13  C   UNK d   0      78.101  68.685  90.198  0.00  0.00     0.174 A 
ATOM     14  N   UNK d   0      78.131  67.445  89.663  0.00  0.00    -0.199 NA
ATOM     15  N   UNK d   0      78.675  68.808  91.505  0.00  0.00    -0.078 NA
ATOM     16  C   UNK d   0      77.598  67.328  88.450  0.00  0.00     0.240 A 
ATOM     17  N   UNK d   0      77.611  66.038  87.843  0.00  0.00    -0.059 NA
ENDBRANCH   5   6
ENDBRANCH   4   5
BRANCH   4  18
ATOM     18  C   UNK d   0      77.847  75.301  91.275  0.00  0.00     0.015 A 
ATOM     19  C   UNK d   0      79.169  74.905  91.040  0.00  0.00     0.001 A 
ATOM     20  C   UNK d   0      80.242  75.573  91.616  0.00  0.00     0.005 A 
ATOM     21  C   UNK d   0      80.014  76.656  92.460  0.00  0.00     0.058 A 
ATOM     22  C   UNK d   0      78.699  77.054  92.722  0.00  0.00     0.005 A 
ATOM     23  C   UNK d   0      77.624  76.382  92.130  0.00  0.00     0.001 A 
BRANCH  21  24
ATOM     24  C   UNK d   0      81.204  77.379  92.989  0.00  0.00     0.280 C 
ATOM     25  O   UNK d   0      82.284  77.061  92.486  0.00  0.00    -0.265 OA
ATOM     26  N   GLU d   1      80.909  78.336  93.872  0.00  0.00    -0.193 NA
ATOM     27  CA  GLU d   1      81.857  78.716  94.779  0.00  0.00     0.190 C 
BRANCH  27  28
ATOM     28  CB  GLU d   1      81.475  79.824  95.621  0.00  0.00    -0.028 C 
BRANCH  28  29
ATOM     29  CG  GLU d   1      81.141  81.034  96.557  0.00  0.00     0.012 C 
BRANCH  29  30
ATOM     30  CD  GLU d   1      80.803  82.192  97.485  0.00  0.00     0.258 C 
ATOM     31  OE1 GLU d   1      81.725  82.628  98.248  0.00  0.00    -0.637 OA
ATOM     32  OE2 GLU d   1      79.613  82.650  97.438  0.00  0.00    -0.637 OA
ENDBRANCH  29  30
ENDBRANCH  28  29
ENDBRANCH  27  28
BRANCH  27  33
ATOM     33  C   GLU d   1      83.230  78.015  95.078  0.00  0.00     0.238 C 
ATOM     34  O   GLU d   1      84.269  78.582  94.604  0.00  0.00    -0.642 OA
ATOM     35  OXT GLU d   1      83.189  77.018  95.875  0.00  0.00    -0.642 OA
ENDBRANCH  27  33
ENDBRANCH  21  24
ENDBRANCH   4  18
ENDBRANCH   3   4
TORSDOF 9
ENDMDL
MODEL 13
REMARK VINA RESULT:      -6.8     15.979     20.044
REMARK  9 active torsions:
REMARK  status: ('A' for Active; 'I' for Inactive)
REMARK    1  A    between atoms: C_3  and  C_4 
REMARK    2  A    between atoms: C_4  and  C_5 
REMARK    3  A    between atoms: C_4  and  C_18 
REMARK    4  A    between atoms: C_5  and  C_6 
REMARK    5  A    between atoms: C_21  and  C_24 
REMARK       I    between atoms: C_24  and  N_26 
REMARK    6  A    between atoms: CA_27  and  CB_28 
REMARK    7  A    between atoms: CA_27  and  C_33 
REMARK    8  A    between atoms: CB_28  and  CG_29 
REMARK    9  A    between atoms: CG_29  and  CD_30 
ROOT
ATOM      1  C   UNK d   0      86.471  72.661  99.319  0.00  0.00    -0.001 C 
ATOM      2  C   UNK d   0      85.299  72.875  99.269  0.00  0.00    -0.008 C 
ATOM      3  C   UNK d   0      83.794  73.116  99.152  0.00  0.00    -0.043 C 
ENDROOT
BRANCH   3   4
ATOM      4  C   UNK d   0      82.387  73.329  99.003  0.00  0.00     0.078 C 
BRANCH   4   5
ATOM      5  C   UNK d   0      81.573  72.160  98.898  0.00  0.00    -0.073 C 
BRANCH   5   6
ATOM      6  C   UNK d   0      80.522  71.200  98.922  0.00  0.00     0.135 A 
ATOM      7  C   UNK d   0      80.698  70.012  99.601  0.00  0.00     0.128 A 
ATOM      8  N   UNK d   0      79.729  69.071  99.683  0.00  0.00    -0.222 NA
ATOM      9  C   UNK d   0      78.569  69.324  99.077  0.00  0.00     0.185 A 
ATOM     10  C   UNK d   0      78.384  70.532  98.382  0.00  0.00     0.149 A 
ATOM     11  N   UNK d   0      77.645  68.379  99.187  0.00  0.00    -0.194 NA
ATOM     12  N   UNK d   0      79.367  71.490  98.299  0.00  0.00    -0.231 NA
ATOM     13  C   UNK d   0      77.120  70.618  97.813  0.00  0.00     0.174 A 
ATOM     14  N   UNK d   0      76.153  69.679  97.902  0.00  0.00    -0.199 NA
ATOM     15  N   UNK d   0      76.775  71.789  97.064  0.00  0.00    -0.078 NA
ATOM     16  C   UNK d   0      76.470  68.590  98.596  0.00  0.00     0.240 A 
ATOM     17  N   UNK d   0      75.479  67.573  98.722  0.00  0.00    -0.059 NA
ENDBRANCH   5   6
ENDBRANCH   4   5
BRANCH   4  18
ATOM     18  C   UNK d   0      81.870  74.705  98.886  0.00  0.00     0.015 A 
ATOM     19  C   UNK d   0      82.156  75.435  97.726  0.00  0.00     0.001 A 
ATOM     20  C   UNK d   0      81.676  76.726  97.543  0.00  0.00     0.005 A 
ATOM     21  C   UNK d   0      80.902  77.326  98.532  0.00  0.00     0.058 A 
ATOM     22  C   UNK d   0      80.622  76.619  99.705  0.00  0.00     0.005 A 
ATOM     23  C   UNK d   0      81.101  75.315  99.878  0.00  0.00     0.001 A 
BRANCH  21  24
ATOM     24  C   UNK d   0      80.353  78.681  98.248  0.00  0.00     0.280 C 
ATOM     25  O   UNK d   0      80.977  79.342  97.415  0.00  0.00    -0.265 OA
ATOM     26  N   GLU d   1      79.206  78.945  98.877  0.00  0.00    -0.193 NA
ATOM     27  CA  GLU d   1      78.864  80.246  99.116  0.00  0.00     0.190 C 
BRANCH  27  28
ATOM     28  CB  GLU d   1      77.562  80.427  99.711  0.00  0.00    -0.028 C 
BRANCH  28  29
ATOM     29  CG  GLU d   1      76.132  80.681 100.295  0.00  0.00     0.012 C 
BRANCH  29  30
ATOM     30  CD  GLU d   1      74.754  80.944 100.886  0.00  0.00     0.258 C 
ATOM     31  OE1 GLU d   1      73.886  81.500 100.139  0.00  0.00    -0.637 OA
ATOM     32  OE2 GLU d   1      74.558  80.588 102.095  0.00  0.00    -0.637 OA
ENDBRANCH  29  30
ENDBRANCH  28  29
ENDBRANCH  27  28
BRANCH  27  33
ATOM     33  C   GLU d   1      79.764  81.520  98.934  0.00  0.00     0.238 C 
ATOM     34  O   GLU d   1      80.745  81.639  99.739  0.00  0.00    -0.642 OA
ATOM     35  OXT GLU d   1      79.507  82.249  97.917  0.00  0.00    -0.642 OA
ENDBRANCH  27  33
ENDBRANCH  21  24
ENDBRANCH   4  18
ENDBRANCH   3   4
TORSDOF 9
ENDMDL
MODEL 14
REMARK VINA RESULT:      -6.8     10.803     14.312
REMARK  9 active torsions:
REMARK  status: ('A' for Active; 'I' for Inactive)
REMARK    1  A    between atoms: C_3  and  C_4 
REMARK    2  A    between atoms: C_4  and  C_5 
REMARK    3  A    between atoms: C_4  and  C_18 
REMARK    4  A    between atoms: C_5  and  C_6 
REMARK    5  A    between atoms: C_21  and  C_24 
REMARK       I    between atoms: C_24  and  N_26 
REMARK    6  A    between atoms: CA_27  and  CB_28 
REMARK    7  A    between atoms: CA_27  and  C_33 
REMARK    8  A    between atoms: CB_28  and  CG_29 
REMARK    9  A    between atoms: CG_29  and  CD_30 
ROOT
ATOM      1  C   UNK d   0      65.222  83.422  90.792  0.00  0.00    -0.001 C 
ATOM      2  C   UNK d   0      65.952  82.495  90.961  0.00  0.00    -0.008 C 
ATOM      3  C   UNK d   0      66.888  81.295  91.115  0.00  0.00    -0.043 C 
ENDROOT
BRANCH   3   4
ATOM      4  C   UNK d   0      67.753  80.162  91.222  0.00  0.00     0.078 C 
BRANCH   4   5
ATOM      5  C   UNK d   0      69.152  80.435  91.333  0.00  0.00    -0.073 C 
BRANCH   5   6
ATOM      6  C   UNK d   0      70.498  80.601  91.764  0.00  0.00     0.135 A 
ATOM      7  C   UNK d   0      71.030  81.870  91.868  0.00  0.00     0.128 A 
ATOM      8  N   UNK d   0      72.293  82.096  92.298  0.00  0.00    -0.222 NA
ATOM      9  C   UNK d   0      73.033  81.036  92.626  0.00  0.00     0.185 A 
ATOM     10  C   UNK d   0      72.497  79.741  92.520  0.00  0.00     0.149 A 
ATOM     11  N   UNK d   0      74.262  81.301  93.047  0.00  0.00    -0.194 NA
ATOM     12  N   UNK d   0      71.213  79.510  92.086  0.00  0.00    -0.231 NA
ATOM     13  C   UNK d   0      73.410  78.766  92.900  0.00  0.00     0.174 A 
ATOM     14  N   UNK d   0      74.670  78.996  93.333  0.00  0.00    -0.199 NA
ATOM     15  N   UNK d   0      73.019  77.389  92.844  0.00  0.00    -0.078 NA
ATOM     16  C   UNK d   0      75.037  80.273  93.386  0.00  0.00     0.240 A 
ATOM     17  N   UNK d   0      76.356  80.564  93.842  0.00  0.00    -0.059 NA
ENDBRANCH   5   6
ENDBRANCH   4   5
BRANCH   4  18
ATOM     18  C   UNK d   0      67.185  78.804  91.130  0.00  0.00     0.015 A 
ATOM     19  C   UNK d   0      67.917  77.731  91.653  0.00  0.00     0.001 A 
ATOM     20  C   UNK d   0      67.425  76.433  91.623  0.00  0.00     0.005 A 
ATOM     21  C   UNK d   0      66.183  76.173  91.051  0.00  0.00     0.058 A 
ATOM     22  C   UNK d   0      65.446  77.230  90.506  0.00  0.00     0.005 A 
ATOM     23  C   UNK d   0      65.945  78.537  90.549  0.00  0.00     0.001 A 
BRANCH  21  24
ATOM     24  C   UNK d   0      65.675  74.775  91.114  0.00  0.00     0.280 C 
ATOM     25  O   UNK d   0      64.991  74.415  90.153  0.00  0.00    -0.265 OA
ATOM     26  N   GLU d   1      66.116  74.084  92.168  0.00  0.00    -0.193 NA
ATOM     27  CA  GLU d   1      65.383  73.025  92.621  0.00  0.00     0.190 C 
BRANCH  27  28
ATOM     28  CB  GLU d   1      65.994  72.286  93.699  0.00  0.00    -0.028 C 
BRANCH  28  29
ATOM     29  CG  GLU d   1      66.583  71.486  94.909  0.00  0.00     0.012 C 
BRANCH  29  30
ATOM     30  CD  GLU d   1      67.144  70.682  96.073  0.00  0.00     0.258 C 
ATOM     31  OE1 GLU d   1      66.527  69.621  96.412  0.00  0.00    -0.637 OA
ATOM     32  OE2 GLU d   1      68.199  71.126  96.635  0.00  0.00    -0.637 OA
ENDBRANCH  29  30
ENDBRANCH  28  29
ENDBRANCH  27  28
BRANCH  27  33
ATOM     33  C   GLU d   1      63.929  72.614  92.191  0.00  0.00     0.238 C 
ATOM     34  O   GLU d   1      63.837  71.659  91.351  0.00  0.00    -0.642 OA
ATOM     35  OXT GLU d   1      62.974  73.187  92.818  0.00  0.00    -0.642 OA
ENDBRANCH  27  33
ENDBRANCH  21  24
ENDBRANCH   4  18
ENDBRANCH   3   4
TORSDOF 9
ENDMDL
MODEL 15
REMARK VINA RESULT:      -6.8     12.816     16.626
REMARK  9 active torsions:
REMARK  status: ('A' for Active; 'I' for Inactive)
REMARK    1  A    between atoms: C_3  and  C_4 
REMARK    2  A    between atoms: C_4  and  C_5 
REMARK    3  A    between atoms: C_4  and  C_18 
REMARK    4  A    between atoms: C_5  and  C_6 
REMARK    5  A    between atoms: C_21  and  C_24 
REMARK       I    between atoms: C_24  and  N_26 
REMARK    6  A    between atoms: CA_27  and  CB_28 
REMARK    7  A    between atoms: CA_27  and  C_33 
REMARK    8  A    between atoms: CB_28  and  CG_29 
REMARK    9  A    between atoms: CG_29  and  CD_30 
ROOT
ATOM      1  C   UNK d   0      75.475  79.470  91.945  0.00  0.00    -0.001 C 
ATOM      2  C   UNK d   0      74.916  78.441  91.723  0.00  0.00    -0.008 C 
ATOM      3  C   UNK d   0      74.146  77.146  91.460  0.00  0.00    -0.043 C 
ENDROOT
BRANCH   3   4
ATOM      4  C   UNK d   0      73.394  75.950  91.237  0.00  0.00     0.078 C 
BRANCH   4   5
ATOM      5  C   UNK d   0      74.136  74.797  90.835  0.00  0.00    -0.073 C 
BRANCH   5   6
ATOM      6  C   UNK d   0      74.616  73.481  90.580  0.00  0.00     0.135 A 
ATOM      7  C   UNK d   0      73.893  72.393  91.025  0.00  0.00     0.128 A 
ATOM      8  N   UNK d   0      74.281  71.118  90.792  0.00  0.00    -0.222 NA
ATOM      9  C   UNK d   0      75.408  70.931  90.105  0.00  0.00     0.185 A 
ATOM     10  C   UNK d   0      76.150  72.035  89.650  0.00  0.00     0.149 A 
ATOM     11  N   UNK d   0      75.749  69.667  89.894  0.00  0.00    -0.194 NA
ATOM     12  N   UNK d   0      75.756  73.331  89.884  0.00  0.00    -0.231 NA
ATOM     13  C   UNK d   0      77.291  71.648  88.959  0.00  0.00     0.174 A 
ATOM     14  N   UNK d   0      77.672  70.373  88.724  0.00  0.00    -0.199 NA
ATOM     15  N   UNK d   0      78.159  72.659  88.435  0.00  0.00    -0.078 NA
ATOM     16  C   UNK d   0      76.868  69.432  89.211  0.00  0.00     0.240 A 
ATOM     17  N   UNK d   0      77.227  68.072  88.983  0.00  0.00    -0.059 NA
ENDBRANCH   5   6
ENDBRANCH   4   5
BRANCH   4  18
ATOM     18  C   UNK d   0      71.925  75.984  91.351  0.00  0.00     0.015 A 
ATOM     19  C   UNK d   0      71.252  77.166  91.021  0.00  0.00     0.001 A 
ATOM     20  C   UNK d   0      69.867  77.255  91.081  0.00  0.00     0.005 A 
ATOM     21  C   UNK d   0      69.116  76.156  91.488  0.00  0.00     0.058 A 
ATOM     22  C   UNK d   0      69.773  74.972  91.840  0.00  0.00     0.005 A 
ATOM     23  C   UNK d   0      71.168  74.888  91.768  0.00  0.00     0.001 A 
BRANCH  21  24
ATOM     24  C   UNK d   0      67.633  76.286  91.461  0.00  0.00     0.280 C 
ATOM     25  O   UNK d   0      67.005  75.235  91.602  0.00  0.00    -0.265 OA
ATOM     26  N   GLU d   1      67.201  77.547  91.378  0.00  0.00    -0.193 NA
ATOM     27  CA  GLU d   1      65.964  77.791  90.855  0.00  0.00     0.190 C 
BRANCH  27  28
ATOM     28  CB  GLU d   1      65.551  79.172  90.901  0.00  0.00    -0.028 C 
BRANCH  28  29
ATOM     29  CG  GLU d   1      65.037  80.651  90.904  0.00  0.00     0.012 C 
BRANCH  29  30
ATOM     30  CD  GLU d   1      64.540  82.090  90.937  0.00  0.00     0.258 C 
ATOM     31  OE1 GLU d   1      65.313  82.972  91.433  0.00  0.00    -0.637 OA
ATOM     32  OE2 GLU d   1      63.378  82.318  90.463  0.00  0.00    -0.637 OA
ENDBRANCH  29  30
ENDBRANCH  28  29
ENDBRANCH  27  28
BRANCH  27  33
ATOM     33  C   GLU d   1      65.021  76.775  90.115  0.00  0.00     0.238 C 
ATOM     34  O   GLU d   1      64.008  76.363  90.772  0.00  0.00    -0.642 OA
ATOM     35  OXT GLU d   1      65.285  76.557  88.884  0.00  0.00    -0.642 OA
ENDBRANCH  27  33
ENDBRANCH  21  24
ENDBRANCH   4  18
ENDBRANCH   3   4
TORSDOF 9
ENDMDL
MODEL 16
REMARK VINA RESULT:      -6.8      7.538     12.111
REMARK  9 active torsions:
REMARK  status: ('A' for Active; 'I' for Inactive)
REMARK    1  A    between atoms: C_3  and  C_4 
REMARK    2  A    between atoms: C_4  and  C_5 
REMARK    3  A    between atoms: C_4  and  C_18 
REMARK    4  A    between atoms: C_5  and  C_6 
REMARK    5  A    between atoms: C_21  and  C_24 
REMARK       I    between atoms: C_24  and  N_26 
REMARK    6  A    between atoms: CA_27  and  CB_28 
REMARK    7  A    between atoms: CA_27  and  C_33 
REMARK    8  A    between atoms: CB_28  and  CG_29 
REMARK    9  A    between atoms: CG_29  and  CD_30 
ROOT
ATOM      1  C   UNK d   0      66.534  82.983  97.960  0.00  0.00    -0.001 C 
ATOM      2  C   UNK d   0      67.075  83.646  97.130  0.00  0.00    -0.008 C 
ATOM      3  C   UNK d   0      67.823  84.486  96.094  0.00  0.00    -0.043 C 
ENDROOT
BRANCH   3   4
ATOM      4  C   UNK d   0      68.556  85.272  95.150  0.00  0.00     0.078 C 
BRANCH   4   5
ATOM      5  C   UNK d   0      67.908  86.448  94.660  0.00  0.00    -0.073 C 
BRANCH   5   6
ATOM      6  C   UNK d   0      67.037  87.394  94.051  0.00  0.00     0.135 A 
ATOM      7  C   UNK d   0      66.291  87.024  92.950  0.00  0.00     0.128 A 
ATOM      8  N   UNK d   0      65.425  87.868  92.342  0.00  0.00    -0.222 NA
ATOM      9  C   UNK d   0      65.306  89.098  92.843  0.00  0.00     0.185 A 
ATOM     10  C   UNK d   0      66.066  89.481  93.963  0.00  0.00     0.149 A 
ATOM     11  N   UNK d   0      64.444  89.891  92.222  0.00  0.00    -0.194 NA
ATOM     12  N   UNK d   0      66.944  88.625  94.583  0.00  0.00    -0.231 NA
ATOM     13  C   UNK d   0      65.814  90.794  94.339  0.00  0.00     0.174 A 
ATOM     14  N   UNK d   0      64.944  91.632  93.732  0.00  0.00    -0.199 NA
ATOM     15  N   UNK d   0      66.514  91.339  95.463  0.00  0.00    -0.078 NA
ATOM     16  C   UNK d   0      64.293  91.129  92.688  0.00  0.00     0.240 A 
ATOM     17  N   UNK d   0      63.361  91.975  92.018  0.00  0.00    -0.059 NA
ENDBRANCH   5   6
ENDBRANCH   4   5
BRANCH   4  18
ATOM     18  C   UNK d   0      69.872  84.801  94.680  0.00  0.00     0.015 A 
ATOM     19  C   UNK d   0      70.605  83.928  95.493  0.00  0.00     0.001 A 
ATOM     20  C   UNK d   0      71.838  83.427  95.095  0.00  0.00     0.005 A 
ATOM     21  C   UNK d   0      72.377  83.802  93.868  0.00  0.00     0.058 A 
ATOM     22  C   UNK d   0      71.668  84.688  93.051  0.00  0.00     0.005 A 
ATOM     23  C   UNK d   0      70.422  85.181  93.455  0.00  0.00     0.001 A 
BRANCH  21  24
ATOM     24  C   UNK d   0      73.666  83.175  93.463  0.00  0.00     0.280 C 
ATOM     25  O   UNK d   0      73.732  82.809  92.288  0.00  0.00    -0.265 OA
ATOM     26  N   GLU d   1      74.599  83.186  94.418  0.00  0.00    -0.193 NA
ATOM     27  CA  GLU d   1      75.594  82.252  94.385  0.00  0.00     0.190 C 
BRANCH  27  28
ATOM     28  CB  GLU d   1      76.605  82.411  95.402  0.00  0.00    -0.028 C 
BRANCH  28  29
ATOM     29  CG  GLU d   1      77.745  82.521  96.469  0.00  0.00     0.012 C 
BRANCH  29  30
ATOM     30  CD  GLU d   1      78.870  82.641  97.487  0.00  0.00     0.258 C 
ATOM     31  OE1 GLU d   1      79.442  81.569  97.867  0.00  0.00    -0.637 OA
ATOM     32  OE2 GLU d   1      79.167  83.813  97.895  0.00  0.00    -0.637 OA
ENDBRANCH  29  30
ENDBRANCH  28  29
ENDBRANCH  27  28
BRANCH  27  33
ATOM     33  C   GLU d   1      75.685  80.985  93.462  0.00  0.00     0.238 C 
ATOM     34  O   GLU d   1      76.482  81.064  92.469  0.00  0.00    -0.642 OA
ATOM     35  OXT GLU d   1      75.052  79.950  93.863  0.00  0.00    -0.642 OA
ENDBRANCH  27  33
ENDBRANCH  21  24
ENDBRANCH   4  18
ENDBRANCH   3   4
TORSDOF 9
ENDMDL
MODEL 17
REMARK VINA RESULT:      -6.7     13.062     17.086
REMARK  9 active torsions:
REMARK  status: ('A' for Active; 'I' for Inactive)
REMARK    1  A    between atoms: C_3  and  C_4 
REMARK    2  A    between atoms: C_4  and  C_5 
REMARK    3  A    between atoms: C_4  and  C_18 
REMARK    4  A    between atoms: C_5  and  C_6 
REMARK    5  A    between atoms: C_21  and  C_24 
REMARK       I    between atoms: C_24  and  N_26 
REMARK    6  A    between atoms: CA_27  and  CB_28 
REMARK    7  A    between atoms: CA_27  and  C_33 
REMARK    8  A    between atoms: CB_28  and  CG_29 
REMARK    9  A    between atoms: CG_29  and  CD_30 
ROOT
ATOM      1  C   UNK d   0      70.535  73.930  94.593  0.00  0.00    -0.001 C 
ATOM      2  C   UNK d   0      71.390  74.332  93.867  0.00  0.00    -0.008 C 
ATOM      3  C   UNK d   0      72.478  74.799  92.898  0.00  0.00    -0.043 C 
ENDROOT
BRANCH   3   4
ATOM      4  C   UNK d   0      73.495  75.197  91.975  0.00  0.00     0.078 C 
BRANCH   4   5
ATOM      5  C   UNK d   0      74.070  74.162  91.174  0.00  0.00    -0.073 C 
BRANCH   5   6
ATOM      6  C   UNK d   0      74.700  72.986  90.679  0.00  0.00     0.135 A 
ATOM      7  C   UNK d   0      74.038  71.777  90.748  0.00  0.00     0.128 A 
ATOM      8  N   UNK d   0      74.571  70.628  90.271  0.00  0.00    -0.222 NA
ATOM      9  C   UNK d   0      75.783  70.692  89.719  0.00  0.00     0.185 A 
ATOM     10  C   UNK d   0      76.463  71.920  89.648  0.00  0.00     0.149 A 
ATOM     11  N   UNK d   0      76.266  69.545  89.260  0.00  0.00    -0.194 NA
ATOM     12  N   UNK d   0      75.922  73.088  90.129  0.00  0.00    -0.231 NA
ATOM     13  C   UNK d   0      77.708  71.793  89.046  0.00  0.00     0.174 A 
ATOM     14  N   UNK d   0      78.235  70.644  88.566  0.00  0.00    -0.199 NA
ATOM     15  N   UNK d   0      78.531  72.956  88.902  0.00  0.00    -0.078 NA
ATOM     16  C   UNK d   0      77.474  69.562  88.699  0.00  0.00     0.240 A 
ATOM     17  N   UNK d   0      77.986  68.327  88.204  0.00  0.00    -0.059 NA
ENDBRANCH   5   6
ENDBRANCH   4   5
BRANCH   4  18
ATOM     18  C   UNK d   0      73.947  76.600  91.954  0.00  0.00     0.015 A 
ATOM     19  C   UNK d   0      73.062  77.599  92.378  0.00  0.00     0.001 A 
ATOM     20  C   UNK d   0      73.436  78.936  92.408  0.00  0.00     0.005 A 
ATOM     21  C   UNK d   0      74.713  79.311  91.998  0.00  0.00     0.058 A 
ATOM     22  C   UNK d   0      75.603  78.329  91.553  0.00  0.00     0.005 A 
ATOM     23  C   UNK d   0      75.222  76.982  91.535  0.00  0.00     0.001 A 
BRANCH  21  24
ATOM     24  C   UNK d   0      75.081  80.748  92.122  0.00  0.00     0.280 C 
ATOM     25  O   UNK d   0      76.277  81.004  91.969  0.00  0.00    -0.265 OA
ATOM     26  N   GLU d   1      74.038  81.563  92.293  0.00  0.00    -0.193 NA
ATOM     27  CA  GLU d   1      74.231  82.770  92.902  0.00  0.00     0.190 C 
BRANCH  27  28
ATOM     28  CB  GLU d   1      73.063  83.616  92.948  0.00  0.00    -0.028 C 
BRANCH  28  29
ATOM     29  CG  GLU d   1      71.748  84.464  93.003  0.00  0.00     0.012 C 
BRANCH  29  30
ATOM     30  CD  GLU d   1      70.484  85.311  93.044  0.00  0.00     0.258 C 
ATOM     31  OE1 GLU d   1      70.131  85.899  91.971  0.00  0.00    -0.637 OA
ATOM     32  OE2 GLU d   1      69.859  85.377  94.154  0.00  0.00    -0.637 OA
ENDBRANCH  29  30
ENDBRANCH  28  29
ENDBRANCH  27  28
BRANCH  27  33
ATOM     33  C   GLU d   1      75.520  83.269  93.648  0.00  0.00     0.238 C 
ATOM     34  O   GLU d   1      75.786  82.701  94.758  0.00  0.00    -0.642 OA
ATOM     35  OXT GLU d   1      76.249  84.103  93.012  0.00  0.00    -0.642 OA
ENDBRANCH  27  33
ENDBRANCH  21  24
ENDBRANCH   4  18
ENDBRANCH   3   4
TORSDOF 9
ENDMDL
MODEL 18
REMARK VINA RESULT:      -6.6      6.732      8.623
REMARK  9 active torsions:
REMARK  status: ('A' for Active; 'I' for Inactive)
REMARK    1  A    between atoms: C_3  and  C_4 
REMARK    2  A    between atoms: C_4  and  C_5 
REMARK    3  A    between atoms: C_4  and  C_18 
REMARK    4  A    between atoms: C_5  and  C_6 
REMARK    5  A    between atoms: C_21  and  C_24 
REMARK       I    between atoms: C_24  and  N_26 
REMARK    6  A    between atoms: CA_27  and  CB_28 
REMARK    7  A    between atoms: CA_27  and  C_33 
REMARK    8  A    between atoms: CB_28  and  CG_29 
REMARK    9  A    between atoms: CG_29  and  CD_30 
ROOT
ATOM      1  C   UNK d   0      66.578  77.528  90.985  0.00  0.00    -0.001 C 
ATOM      2  C   UNK d   0      66.915  78.645  91.228  0.00  0.00    -0.008 C 
ATOM      3  C   UNK d   0      67.289  80.091  91.560  0.00  0.00    -0.043 C 
ENDROOT
BRANCH   3   4
ATOM      4  C   UNK d   0      67.598  81.451  91.872  0.00  0.00     0.078 C 
BRANCH   4   5
ATOM      5  C   UNK d   0      68.914  81.709  92.365  0.00  0.00    -0.073 C 
BRANCH   5   6
ATOM      6  C   UNK d   0      70.229  82.198  92.606  0.00  0.00     0.135 A 
ATOM      7  C   UNK d   0      70.403  83.481  93.085  0.00  0.00     0.128 A 
ATOM      8  N   UNK d   0      71.624  83.995  93.359  0.00  0.00    -0.222 NA
ATOM      9  C   UNK d   0      72.684  83.214  93.151  0.00  0.00     0.185 A 
ATOM     10  C   UNK d   0      72.514  81.907  92.661  0.00  0.00     0.149 A 
ATOM     11  N   UNK d   0      73.861  83.754  93.437  0.00  0.00    -0.194 NA
ATOM     12  N   UNK d   0      71.274  81.383  92.384  0.00  0.00    -0.231 NA
ATOM     13  C   UNK d   0      73.726  81.247  92.504  0.00  0.00     0.174 A 
ATOM     14  N   UNK d   0      74.943  81.763  92.784  0.00  0.00    -0.199 NA
ATOM     15  N   UNK d   0      73.724  79.904  92.007  0.00  0.00    -0.078 NA
ATOM     16  C   UNK d   0      74.949  83.010  93.245  0.00  0.00     0.240 A 
ATOM     17  N   UNK d   0      76.210  83.595  93.559  0.00  0.00    -0.059 NA
ENDBRANCH   5   6
ENDBRANCH   4   5
BRANCH   4  18
ATOM     18  C   UNK d   0      66.548  82.480  91.752  0.00  0.00     0.015 A 
ATOM     19  C   UNK d   0      65.383  82.173  91.040  0.00  0.00     0.001 A 
ATOM     20  C   UNK d   0      64.346  83.088  90.914  0.00  0.00     0.005 A 
ATOM     21  C   UNK d   0      64.458  84.350  91.492  0.00  0.00     0.058 A 
ATOM     22  C   UNK d   0      65.623  84.681  92.191  0.00  0.00     0.005 A 
ATOM     23  C   UNK d   0      66.660  83.750  92.322  0.00  0.00     0.001 A 
BRANCH  21  24
ATOM     24  C   UNK d   0      63.285  85.261  91.388  0.00  0.00     0.280 C 
ATOM     25  O   UNK d   0      62.310  84.805  90.787  0.00  0.00    -0.265 OA
ATOM     26  N   GLU d   1      63.433  86.414  92.045  0.00  0.00    -0.193 NA
ATOM     27  CA  GLU d   1      62.710  87.502  91.647  0.00  0.00     0.190 C 
BRANCH  27  28
ATOM     28  CB  GLU d   1      62.867  88.668  92.482  0.00  0.00    -0.028 C 
BRANCH  28  29
ATOM     29  CG  GLU d   1      62.981  89.973  93.339  0.00  0.00     0.012 C 
BRANCH  29  30
ATOM     30  CD  GLU d   1      63.094  91.258  94.147  0.00  0.00     0.258 C 
ATOM     31  OE1 GLU d   1      64.216  91.519  94.691  0.00  0.00    -0.637 OA
ATOM     32  OE2 GLU d   1      62.054  91.992  94.228  0.00  0.00    -0.637 OA
ENDBRANCH  29  30
ENDBRANCH  28  29
ENDBRANCH  27  28
BRANCH  27  33
ATOM     33  C   GLU d   1      61.847  87.652  90.343  0.00  0.00     0.238 C 
ATOM     34  O   GLU d   1      62.492  87.785  89.251  0.00  0.00    -0.642 OA
ATOM     35  OXT GLU d   1      60.587  87.498  90.482  0.00  0.00    -0.642 OA
ENDBRANCH  27  33
ENDBRANCH  21  24
ENDBRANCH   4  18
ENDBRANCH   3   4
TORSDOF 9
ENDMDL
MODEL 19
REMARK VINA RESULT:      -6.6     16.773     18.685
REMARK  9 active torsions:
REMARK  status: ('A' for Active; 'I' for Inactive)
REMARK    1  A    between atoms: C_3  and  C_4 
REMARK    2  A    between atoms: C_4  and  C_5 
REMARK    3  A    between atoms: C_4  and  C_18 
REMARK    4  A    between atoms: C_5  and  C_6 
REMARK    5  A    between atoms: C_21  and  C_24 
REMARK       I    between atoms: C_24  and  N_26 
REMARK    6  A    between atoms: CA_27  and  CB_28 
REMARK    7  A    between atoms: CA_27  and  C_33 
REMARK    8  A    between atoms: CB_28  and  CG_29 
REMARK    9  A    between atoms: CG_29  and  CD_30 
ROOT
ATOM      1  C   UNK d   0      65.532  70.491  96.095  0.00  0.00    -0.001 C 
ATOM      2  C   UNK d   0      64.976  70.689  97.131  0.00  0.00    -0.008 C 
ATOM      3  C   UNK d   0      64.247  71.000  98.439  0.00  0.00    -0.043 C 
ENDROOT
BRANCH   3   4
ATOM      4  C   UNK d   0      63.566  71.332  99.652  0.00  0.00     0.078 C 
BRANCH   4   5
ATOM      5  C   UNK d   0      64.388  71.664 100.774  0.00  0.00    -0.073 C 
BRANCH   5   6
ATOM      6  C   UNK d   0      65.243  72.290 101.724  0.00  0.00     0.135 A 
ATOM      7  C   UNK d   0      64.835  73.452 102.346  0.00  0.00     0.128 A 
ATOM      8  N   UNK d   0      65.590  74.081 103.277  0.00  0.00    -0.222 NA
ATOM      9  C   UNK d   0      66.767  73.538 103.588  0.00  0.00     0.185 A 
ATOM     10  C   UNK d   0      67.189  72.356 102.955  0.00  0.00     0.149 A 
ATOM     11  N   UNK d   0      67.472  74.183 104.508  0.00  0.00    -0.194 NA
ATOM     12  N   UNK d   0      66.423  71.715 102.011  0.00  0.00    -0.231 NA
ATOM     13  C   UNK d   0      68.437  71.943 103.401  0.00  0.00     0.174 A 
ATOM     14  N   UNK d   0      69.185  72.571 104.335  0.00  0.00    -0.199 NA
ATOM     15  N   UNK d   0      69.012  70.752 102.848  0.00  0.00    -0.078 NA
ATOM     16  C   UNK d   0      68.656  73.676 104.849  0.00  0.00     0.240 A 
ATOM     17  N   UNK d   0      69.407  74.370 105.842  0.00  0.00    -0.059 NA
ENDBRANCH   5   6
ENDBRANCH   4   5
BRANCH   4  18
ATOM     18  C   UNK d   0      62.096  71.237  99.708  0.00  0.00     0.015 A 
ATOM     19  C   UNK d   0      61.390  72.173 100.472  0.00  0.00     0.001 A 
ATOM     20  C   UNK d   0      60.003  72.155 100.544  0.00  0.00     0.005 A 
ATOM     21  C   UNK d   0      59.284  71.181  99.856  0.00  0.00     0.058 A 
ATOM     22  C   UNK d   0      59.974  70.225  99.104  0.00  0.00     0.005 A 
ATOM     23  C   UNK d   0      61.371  70.257  99.028  0.00  0.00     0.001 A 
BRANCH  21  24
ATOM     24  C   UNK d   0      57.798  71.256  99.911  0.00  0.00     0.280 C 
ATOM     25  O   UNK d   0      57.210  70.886  98.892  0.00  0.00    -0.265 OA
ATOM     26  N   GLU d   1      57.316  71.631 101.098  0.00  0.00    -0.193 NA
ATOM     27  CA  GLU d   1      56.082  72.211 101.160  0.00  0.00     0.190 C 
BRANCH  27  28
ATOM     28  CB  GLU d   1      55.612  72.487 102.496  0.00  0.00    -0.028 C 
BRANCH  28  29
ATOM     29  CG  GLU d   1      55.029  72.751 103.925  0.00  0.00     0.012 C 
BRANCH  29  30
ATOM     30  CD  GLU d   1      54.440  73.023 105.302  0.00  0.00     0.258 C 
ATOM     31  OE1 GLU d   1      54.586  72.128 106.196  0.00  0.00    -0.637 OA
ATOM     32  OE2 GLU d   1      53.835  74.134 105.470  0.00  0.00    -0.637 OA
ENDBRANCH  29  30
ENDBRANCH  28  29
ENDBRANCH  27  28
BRANCH  27  33
ATOM     33  C   GLU d   1      55.198  72.711  99.962  0.00  0.00     0.238 C 
ATOM     34  O   GLU d   1      54.079  72.121  99.800  0.00  0.00    -0.642 OA
ATOM     35  OXT GLU d   1      55.624  73.744  99.342  0.00  0.00    -0.642 OA
ENDBRANCH  27  33
ENDBRANCH  21  24
ENDBRANCH   4  18
ENDBRANCH   3   4
TORSDOF 9
ENDMDL
MODEL 20
REMARK VINA RESULT:      -6.6     18.119     21.464
REMARK  9 active torsions:
REMARK  status: ('A' for Active; 'I' for Inactive)
REMARK    1  A    between atoms: C_3  and  C_4 
REMARK    2  A    between atoms: C_4  and  C_5 
REMARK    3  A    between atoms: C_4  and  C_18 
REMARK    4  A    between atoms: C_5  and  C_6 
REMARK    5  A    between atoms: C_21  and  C_24 
REMARK       I    between atoms: C_24  and  N_26 
REMARK    6  A    between atoms: CA_27  and  CB_28 
REMARK    7  A    between atoms: CA_27  and  C_33 
REMARK    8  A    between atoms: CB_28  and  CG_29 
REMARK    9  A    between atoms: CG_29  and  CD_30 
ROOT
ATOM      1  C   UNK d   0      68.842  72.807 105.084  0.00  0.00    -0.001 C 
ATOM      2  C   UNK d   0      69.276  72.599 103.994  0.00  0.00    -0.008 C 
ATOM      3  C   UNK d   0      69.777  72.349 102.571  0.00  0.00    -0.043 C 
ENDROOT
BRANCH   3   4
ATOM      4  C   UNK d   0      70.206  72.115 101.226  0.00  0.00     0.078 C 
BRANCH   4   5
ATOM      5  C   UNK d   0      69.184  72.081 100.228  0.00  0.00    -0.073 C 
BRANCH   5   6
ATOM      6  C   UNK d   0      68.430  71.987  99.025  0.00  0.00     0.135 A 
ATOM      7  C   UNK d   0      69.052  72.200  97.811  0.00  0.00     0.128 A 
ATOM      8  N   UNK d   0      68.397  72.099  96.631  0.00  0.00    -0.222 NA
ATOM      9  C   UNK d   0      67.103  71.780  96.668  0.00  0.00     0.185 A 
ATOM     10  C   UNK d   0      66.463  71.564  97.901  0.00  0.00     0.149 A 
ATOM     11  N   UNK d   0      66.500  71.686  95.491  0.00  0.00    -0.194 NA
ATOM     12  N   UNK d   0      67.127  71.664  99.101  0.00  0.00    -0.231 NA
ATOM     13  C   UNK d   0      65.120  71.247  97.744  0.00  0.00     0.174 A 
ATOM     14  N   UNK d   0      64.471  71.142  96.563  0.00  0.00    -0.199 NA
ATOM     15  N   UNK d   0      64.325  71.002  98.910  0.00  0.00    -0.078 NA
ATOM     16  C   UNK d   0      65.207  71.370  95.479  0.00  0.00     0.240 A 
ATOM     17  N   UNK d   0      64.566  71.266  94.210  0.00  0.00    -0.059 NA
ENDBRANCH   5   6
ENDBRANCH   4   5
BRANCH   4  18
ATOM     18  C   UNK d   0      71.630  71.846 100.956  0.00  0.00     0.015 A 
ATOM     19  C   UNK d   0      72.473  72.922 100.653  0.00  0.00     0.001 A 
ATOM     20  C   UNK d   0      73.829  72.739 100.415  0.00  0.00     0.005 A 
ATOM     21  C   UNK d   0      74.376  71.459 100.463  0.00  0.00     0.058 A 
ATOM     22  C   UNK d   0      73.546  70.370 100.744  0.00  0.00     0.005 A 
ATOM     23  C   UNK d   0      72.182  70.565 100.993  0.00  0.00     0.001 A 
BRANCH  21  24
ATOM     24  C   UNK d   0      75.848  71.333 100.273  0.00  0.00     0.280 C 
ATOM     25  O   UNK d   0      76.495  72.368 100.441  0.00  0.00    -0.265 OA
ATOM     26  N   GLU d   1      76.260  70.085 100.036  0.00  0.00    -0.193 NA
ATOM     27  CA  GLU d   1      77.435  69.890  99.370  0.00  0.00     0.190 C 
BRANCH  27  28
ATOM     28  CB  GLU d   1      77.839  68.510  99.252  0.00  0.00    -0.028 C 
BRANCH  28  29
ATOM     29  CG  GLU d   1      78.233  66.996  99.194  0.00  0.00     0.012 C 
BRANCH  29  30
ATOM     30  CD  GLU d   1      78.610  65.523  99.109  0.00  0.00     0.258 C 
ATOM     31  OE1 GLU d   1      78.723  64.877 100.200  0.00  0.00    -0.637 OA
ATOM     32  OE2 GLU d   1      78.789  65.032  97.946  0.00  0.00    -0.637 OA
ENDBRANCH  29  30
ENDBRANCH  28  29
ENDBRANCH  27  28
BRANCH  27  33
ATOM     33  C   GLU d   1      78.306  70.968  98.630  0.00  0.00     0.238 C 
ATOM     34  O   GLU d   1      79.375  71.334  99.221  0.00  0.00    -0.642 OA
ATOM     35  OXT GLU d   1      77.930  71.280  97.450  0.00  0.00    -0.642 OA
ENDBRANCH  27  33
ENDBRANCH  21  24
ENDBRANCH   4  18
ENDBRANCH   3   4
TORSDOF 9
ENDMDL
