MODEL 1
REMARK VINA RESULT:      -1.1      0.000      0.000
REMARK  2 active torsions:
REMARK  status: ('A' for Active; 'I' for Inactive)
REMARK    1  A    between atoms: C_6  and  N_7 
REMARK       I    between atoms: N_7  and  C_8 
REMARK       I    between atoms: C_8  and  N_10 
REMARK       I    between atoms: N_10  and  C_11 
REMARK       I    between atoms: C_11  and  N_13 
REMARK    2  A    between atoms: N_13  and  C_14 
ROOT
ATOM      1 CL   UNL d   1      67.206  88.740  77.744  0.00  0.00     0.000 Cl
ENDROOT
TORSDOF 2
ENDMDL
MODEL 2
REMARK VINA RESULT:      -1.1     16.649     16.649
REMARK  2 active torsions:
REMARK  status: ('A' for Active; 'I' for Inactive)
REMARK    1  A    between atoms: C_6  and  N_7 
REMARK       I    between atoms: N_7  and  C_8 
REMARK       I    between atoms: C_8  and  N_10 
REMARK       I    between atoms: N_10  and  C_11 
REMARK       I    between atoms: C_11  and  N_13 
REMARK    2  A    between atoms: N_13  and  C_14 
ROOT
ATOM      1 CL   UNL d   1      79.243  78.208  82.364  0.00  0.00     0.000 Cl
ENDROOT
TORSDOF 2
ENDMDL
MODEL 3
REMARK VINA RESULT:      -1.0     32.955     32.955
REMARK  2 active torsions:
REMARK  status: ('A' for Active; 'I' for Inactive)
REMARK    1  A    between atoms: C_6  and  N_7 
REMARK       I    between atoms: N_7  and  C_8 
REMARK       I    between atoms: C_8  and  N_10 
REMARK       I    between atoms: N_10  and  C_11 
REMARK       I    between atoms: C_11  and  N_13 
REMARK    2  A    between atoms: N_13  and  C_14 
ROOT
ATOM      1 CL   UNL d   1      80.068  80.293 106.885  0.00  0.00     0.000 Cl
ENDROOT
TORSDOF 2
ENDMDL
MODEL 4
REMARK VINA RESULT:      -0.9     29.531     29.531
REMARK  2 active torsions:
REMARK  status: ('A' for Active; 'I' for Inactive)
REMARK    1  A    between atoms: C_6  and  N_7 
REMARK       I    between atoms: N_7  and  C_8 
REMARK       I    between atoms: C_8  and  N_10 
REMARK       I    between atoms: N_10  and  C_11 
REMARK       I    between atoms: C_11  and  N_13 
REMARK    2  A    between atoms: N_13  and  C_14 
ROOT
ATOM      1 CL   UNL d   1      56.592  63.060  87.740  0.00  0.00     0.000 Cl
ENDROOT
TORSDOF 2
ENDMDL
MODEL 5
REMARK VINA RESULT:      -0.9     38.735     38.735
REMARK  2 active torsions:
REMARK  status: ('A' for Active; 'I' for Inactive)
REMARK    1  A    between atoms: C_6  and  N_7 
REMARK       I    between atoms: N_7  and  C_8 
REMARK       I    between atoms: C_8  and  N_10 
REMARK       I    between atoms: N_10  and  C_11 
REMARK       I    between atoms: C_11  and  N_13 
REMARK    2  A    between atoms: N_13  and  C_14 
ROOT
ATOM      1 CL   UNL d   1      73.499  58.604 101.251  0.00  0.00     0.000 Cl
ENDROOT
TORSDOF 2
ENDMDL
MODEL 6
REMARK VINA RESULT:      -0.9     19.389     19.389
REMARK  2 active torsions:
REMARK  status: ('A' for Active; 'I' for Inactive)
REMARK    1  A    between atoms: C_6  and  N_7 
REMARK       I    between atoms: N_7  and  C_8 
REMARK       I    between atoms: C_8  and  N_10 
REMARK       I    between atoms: N_10  and  C_11 
REMARK       I    between atoms: C_11  and  N_13 
REMARK    2  A    between atoms: N_13  and  C_14 
ROOT
ATOM      1 CL   UNL d   1      57.094  74.249  85.723  0.00  0.00     0.000 Cl
ENDROOT
TORSDOF 2
ENDMDL
MODEL 7
REMARK VINA RESULT:      -0.9     26.727     26.727
REMARK  2 active torsions:
REMARK  status: ('A' for Active; 'I' for Inactive)
REMARK    1  A    between atoms: C_6  and  N_7 
REMARK       I    between atoms: N_7  and  C_8 
REMARK       I    between atoms: C_8  and  N_10 
REMARK       I    between atoms: N_10  and  C_11 
REMARK       I    between atoms: C_11  and  N_13 
REMARK    2  A    between atoms: N_13  and  C_14 
ROOT
ATOM      1 CL   UNL d   1      86.265  81.035  94.823  0.00  0.00     0.000 Cl
ENDROOT
TORSDOF 2
ENDMDL
MODEL 8
REMARK VINA RESULT:      -0.9     27.087     27.087
REMARK  2 active torsions:
REMARK  status: ('A' for Active; 'I' for Inactive)
REMARK    1  A    between atoms: C_6  and  N_7 
REMARK       I    between atoms: N_7  and  C_8 
REMARK       I    between atoms: C_8  and  N_10 
REMARK       I    between atoms: N_10  and  C_11 
REMARK       I    between atoms: C_11  and  N_13 
REMARK    2  A    between atoms: N_13  and  C_14 
ROOT
ATOM      1 CL   UNL d   1      84.881  82.611  97.332  0.00  0.00     0.000 Cl
ENDROOT
TORSDOF 2
ENDMDL
MODEL 9
REMARK VINA RESULT:      -0.9     13.658     13.658
REMARK  2 active torsions:
REMARK  status: ('A' for Active; 'I' for Inactive)
REMARK    1  A    between atoms: C_6  and  N_7 
REMARK       I    between atoms: N_7  and  C_8 
REMARK       I    between atoms: C_8  and  N_10 
REMARK       I    between atoms: N_10  and  C_11 
REMARK       I    between atoms: C_11  and  N_13 
REMARK    2  A    between atoms: N_13  and  C_14 
ROOT
ATOM      1 CL   UNL d   1      61.539  76.751  81.008  0.00  0.00     0.000 Cl
ENDROOT
TORSDOF 2
ENDMDL
MODEL 10
REMARK VINA RESULT:      -0.8     23.262     23.262
REMARK  2 active torsions:
REMARK  status: ('A' for Active; 'I' for Inactive)
REMARK    1  A    between atoms: C_6  and  N_7 
REMARK       I    between atoms: N_7  and  C_8 
REMARK       I    between atoms: C_8  and  N_10 
REMARK       I    between atoms: N_10  and  C_11 
REMARK       I    between atoms: C_11  and  N_13 
REMARK    2  A    between atoms: N_13  and  C_14 
ROOT
ATOM      1 CL   UNL d   1      79.951  91.738  96.971  0.00  0.00     0.000 Cl
ENDROOT
TORSDOF 2
ENDMDL
MODEL 11
REMARK VINA RESULT:      -0.8     33.093     33.093
REMARK  2 active torsions:
REMARK  status: ('A' for Active; 'I' for Inactive)
REMARK    1  A    between atoms: C_6  and  N_7 
REMARK       I    between atoms: N_7  and  C_8 
REMARK       I    between atoms: C_8  and  N_10 
REMARK       I    between atoms: N_10  and  C_11 
REMARK       I    between atoms: C_11  and  N_13 
REMARK    2  A    between atoms: N_13  and  C_14 
ROOT
ATOM      1 CL   UNL d   1      80.267  78.318 106.308  0.00  0.00     0.000 Cl
ENDROOT
TORSDOF 2
ENDMDL
MODEL 12
REMARK VINA RESULT:      -0.8     32.027     32.027
REMARK  2 active torsions:
REMARK  status: ('A' for Active; 'I' for Inactive)
REMARK    1  A    between atoms: C_6  and  N_7 
REMARK       I    between atoms: N_7  and  C_8 
REMARK       I    between atoms: C_8  and  N_10 
REMARK       I    between atoms: N_10  and  C_11 
REMARK       I    between atoms: C_11  and  N_13 
REMARK    2  A    between atoms: N_13  and  C_14 
ROOT
ATOM      1 CL   UNL d   1      68.340  68.436 102.486  0.00  0.00     0.000 Cl
ENDROOT
TORSDOF 2
ENDMDL
MODEL 13
REMARK VINA RESULT:      -0.8     25.212     25.212
REMARK  2 active torsions:
REMARK  status: ('A' for Active; 'I' for Inactive)
REMARK    1  A    between atoms: C_6  and  N_7 
REMARK       I    between atoms: N_7  and  C_8 
REMARK       I    between atoms: C_8  and  N_10 
REMARK       I    between atoms: N_10  and  C_11 
REMARK       I    between atoms: C_11  and  N_13 
REMARK    2  A    between atoms: N_13  and  C_14 
ROOT
ATOM      1 CL   UNL d   1      78.276  67.757  86.276  0.00  0.00     0.000 Cl
ENDROOT
TORSDOF 2
ENDMDL
MODEL 14
REMARK VINA RESULT:      -0.8     31.724     31.724
REMARK  2 active torsions:
REMARK  status: ('A' for Active; 'I' for Inactive)
REMARK    1  A    between atoms: C_6  and  N_7 
REMARK       I    between atoms: N_7  and  C_8 
REMARK       I    between atoms: C_8  and  N_10 
REMARK       I    between atoms: N_10  and  C_11 
REMARK       I    between atoms: C_11  and  N_13 
REMARK    2  A    between atoms: N_13  and  C_14 
ROOT
ATOM      1 CL   UNL d   1      70.945  75.550 106.351  0.00  0.00     0.000 Cl
ENDROOT
TORSDOF 2
ENDMDL
MODEL 15
REMARK VINA RESULT:      -0.8     16.721     16.721
REMARK  2 active torsions:
REMARK  status: ('A' for Active; 'I' for Inactive)
REMARK    1  A    between atoms: C_6  and  N_7 
REMARK       I    between atoms: N_7  and  C_8 
REMARK       I    between atoms: C_8  and  N_10 
REMARK       I    between atoms: N_10  and  C_11 
REMARK       I    between atoms: C_11  and  N_13 
REMARK    2  A    between atoms: N_13  and  C_14 
ROOT
ATOM      1 CL   UNL d   1      61.871  73.123  80.432  0.00  0.00     0.000 Cl
ENDROOT
TORSDOF 2
ENDMDL
MODEL 16
REMARK VINA RESULT:      -0.8     19.601     19.601
REMARK  2 active torsions:
REMARK  status: ('A' for Active; 'I' for Inactive)
REMARK    1  A    between atoms: C_6  and  N_7 
REMARK       I    between atoms: N_7  and  C_8 
REMARK       I    between atoms: C_8  and  N_10 
REMARK       I    between atoms: N_10  and  C_11 
REMARK       I    between atoms: C_11  and  N_13 
REMARK    2  A    between atoms: N_13  and  C_14 
ROOT
ATOM      1 CL   UNL d   1      58.262  72.785  84.789  0.00  0.00     0.000 Cl
ENDROOT
TORSDOF 2
ENDMDL
MODEL 17
REMARK VINA RESULT:      -0.7     22.684     22.684
REMARK  2 active torsions:
REMARK  status: ('A' for Active; 'I' for Inactive)
REMARK    1  A    between atoms: C_6  and  N_7 
REMARK       I    between atoms: N_7  and  C_8 
REMARK       I    between atoms: C_8  and  N_10 
REMARK       I    between atoms: N_10  and  C_11 
REMARK       I    between atoms: C_11  and  N_13 
REMARK    2  A    between atoms: N_13  and  C_14 
ROOT
ATOM      1 CL   UNL d   1      75.843  69.504  86.107  0.00  0.00     0.000 Cl
ENDROOT
TORSDOF 2
ENDMDL
MODEL 18
REMARK VINA RESULT:      -0.7     21.350     21.350
REMARK  2 active torsions:
REMARK  status: ('A' for Active; 'I' for Inactive)
REMARK    1  A    between atoms: C_6  and  N_7 
REMARK       I    between atoms: N_7  and  C_8 
REMARK       I    between atoms: C_8  and  N_10 
REMARK       I    between atoms: N_10  and  C_11 
REMARK       I    between atoms: C_11  and  N_13 
REMARK    2  A    between atoms: N_13  and  C_14 
ROOT
ATOM      1 CL   UNL d   1      63.925  72.078  90.683  0.00  0.00     0.000 Cl
ENDROOT
TORSDOF 2
ENDMDL
MODEL 19
REMARK VINA RESULT:      -0.7     18.695     18.695
REMARK  2 active torsions:
REMARK  status: ('A' for Active; 'I' for Inactive)
REMARK    1  A    between atoms: C_6  and  N_7 
REMARK       I    between atoms: N_7  and  C_8 
REMARK       I    between atoms: C_8  and  N_10 
REMARK       I    between atoms: N_10  and  C_11 
REMARK       I    between atoms: C_11  and  N_13 
REMARK    2  A    between atoms: N_13  and  C_14 
ROOT
ATOM      1 CL   UNL d   1      59.137  72.199  81.030  0.00  0.00     0.000 Cl
ENDROOT
TORSDOF 2
ENDMDL
MODEL 20
REMARK VINA RESULT:      -0.7     20.700     20.700
REMARK  2 active torsions:
REMARK  status: ('A' for Active; 'I' for Inactive)
REMARK    1  A    between atoms: C_6  and  N_7 
REMARK       I    between atoms: N_7  and  C_8 
REMARK       I    between atoms: C_8  and  N_10 
REMARK       I    between atoms: N_10  and  C_11 
REMARK       I    between atoms: C_11  and  N_13 
REMARK    2  A    between atoms: N_13  and  C_14 
ROOT
ATOM      1 CL   UNL d   1      55.848  72.128  82.591  0.00  0.00     0.000 Cl
ENDROOT
TORSDOF 2
ENDMDL
