MODEL 1
REMARK VINA RESULT:      -1.1      0.000      0.000
REMARK  7 active torsions:
REMARK  status: ('A' for Active; 'I' for Inactive)
REMARK    1  A    between atoms: N_3  and  C_5 
REMARK    2  A    between atoms: C_14  and  N_13 
REMARK    3  A    between atoms: C_16  and  N_21 
REMARK       I    between atoms: N_21  and  C_22 
REMARK    4  A    between atoms: C_22  and  C_24 
REMARK    5  A    between atoms: C_24  and  C_25 
REMARK    6  A    between atoms: C_25  and  C_26 
REMARK    7  A    between atoms: C_29  and  O_32 
ROOT
ATOM      1 CL   UNL d   1      67.206  88.740  77.744  0.00  0.00     0.000 Cl
ENDROOT
TORSDOF 7
ENDMDL
MODEL 2
REMARK VINA RESULT:      -1.1     16.649     16.649
REMARK  7 active torsions:
REMARK  status: ('A' for Active; 'I' for Inactive)
REMARK    1  A    between atoms: N_3  and  C_5 
REMARK    2  A    between atoms: C_14  and  N_13 
REMARK    3  A    between atoms: C_16  and  N_21 
REMARK       I    between atoms: N_21  and  C_22 
REMARK    4  A    between atoms: C_22  and  C_24 
REMARK    5  A    between atoms: C_24  and  C_25 
REMARK    6  A    between atoms: C_25  and  C_26 
REMARK    7  A    between atoms: C_29  and  O_32 
ROOT
ATOM      1 CL   UNL d   1      79.243  78.208  82.364  0.00  0.00     0.000 Cl
ENDROOT
TORSDOF 7
ENDMDL
MODEL 3
REMARK VINA RESULT:      -1.0     18.804     18.804
REMARK  7 active torsions:
REMARK  status: ('A' for Active; 'I' for Inactive)
REMARK    1  A    between atoms: N_3  and  C_5 
REMARK    2  A    between atoms: C_14  and  N_13 
REMARK    3  A    between atoms: C_16  and  N_21 
REMARK       I    between atoms: N_21  and  C_22 
REMARK    4  A    between atoms: C_22  and  C_24 
REMARK    5  A    between atoms: C_24  and  C_25 
REMARK    6  A    between atoms: C_25  and  C_26 
REMARK    7  A    between atoms: C_29  and  O_32 
ROOT
ATOM      1 CL   UNL d   1      84.652  84.606  72.075  0.00  0.00     0.000 Cl
ENDROOT
TORSDOF 7
ENDMDL
MODEL 4
REMARK VINA RESULT:      -1.0     19.828     19.828
REMARK  7 active torsions:
REMARK  status: ('A' for Active; 'I' for Inactive)
REMARK    1  A    between atoms: N_3  and  C_5 
REMARK    2  A    between atoms: C_14  and  N_13 
REMARK    3  A    between atoms: C_16  and  N_21 
REMARK       I    between atoms: N_21  and  C_22 
REMARK    4  A    between atoms: C_22  and  C_24 
REMARK    5  A    between atoms: C_24  and  C_25 
REMARK    6  A    between atoms: C_25  and  C_26 
REMARK    7  A    between atoms: C_29  and  O_32 
ROOT
ATOM      1 CL   UNL d   1      82.956  76.715  78.430  0.00  0.00     0.000 Cl
ENDROOT
TORSDOF 7
ENDMDL
MODEL 5
REMARK VINA RESULT:      -1.0     32.957     32.957
REMARK  7 active torsions:
REMARK  status: ('A' for Active; 'I' for Inactive)
REMARK    1  A    between atoms: N_3  and  C_5 
REMARK    2  A    between atoms: C_14  and  N_13 
REMARK    3  A    between atoms: C_16  and  N_21 
REMARK       I    between atoms: N_21  and  C_22 
REMARK    4  A    between atoms: C_22  and  C_24 
REMARK    5  A    between atoms: C_24  and  C_25 
REMARK    6  A    between atoms: C_25  and  C_26 
REMARK    7  A    between atoms: C_29  and  O_32 
ROOT
ATOM      1 CL   UNL d   1      80.067  80.271 106.882  0.00  0.00     0.000 Cl
ENDROOT
TORSDOF 7
ENDMDL
MODEL 6
REMARK VINA RESULT:      -0.9     29.531     29.531
REMARK  7 active torsions:
REMARK  status: ('A' for Active; 'I' for Inactive)
REMARK    1  A    between atoms: N_3  and  C_5 
REMARK    2  A    between atoms: C_14  and  N_13 
REMARK    3  A    between atoms: C_16  and  N_21 
REMARK       I    between atoms: N_21  and  C_22 
REMARK    4  A    between atoms: C_22  and  C_24 
REMARK    5  A    between atoms: C_24  and  C_25 
REMARK    6  A    between atoms: C_25  and  C_26 
REMARK    7  A    between atoms: C_29  and  O_32 
ROOT
ATOM      1 CL   UNL d   1      56.592  63.060  87.740  0.00  0.00     0.000 Cl
ENDROOT
TORSDOF 7
ENDMDL
MODEL 7
REMARK VINA RESULT:      -0.9     18.448     18.448
REMARK  7 active torsions:
REMARK  status: ('A' for Active; 'I' for Inactive)
REMARK    1  A    between atoms: N_3  and  C_5 
REMARK    2  A    between atoms: C_14  and  N_13 
REMARK    3  A    between atoms: C_16  and  N_21 
REMARK       I    between atoms: N_21  and  C_22 
REMARK    4  A    between atoms: C_22  and  C_24 
REMARK    5  A    between atoms: C_24  and  C_25 
REMARK    6  A    between atoms: C_25  and  C_26 
REMARK    7  A    between atoms: C_29  and  O_32 
ROOT
ATOM      1 CL   UNL d   1      80.685  76.568  80.985  0.00  0.00     0.000 Cl
ENDROOT
TORSDOF 7
ENDMDL
MODEL 8
REMARK VINA RESULT:      -0.9     19.389     19.389
REMARK  7 active torsions:
REMARK  status: ('A' for Active; 'I' for Inactive)
REMARK    1  A    between atoms: N_3  and  C_5 
REMARK    2  A    between atoms: C_14  and  N_13 
REMARK    3  A    between atoms: C_16  and  N_21 
REMARK       I    between atoms: N_21  and  C_22 
REMARK    4  A    between atoms: C_22  and  C_24 
REMARK    5  A    between atoms: C_24  and  C_25 
REMARK    6  A    between atoms: C_25  and  C_26 
REMARK    7  A    between atoms: C_29  and  O_32 
ROOT
ATOM      1 CL   UNL d   1      57.094  74.249  85.723  0.00  0.00     0.000 Cl
ENDROOT
TORSDOF 7
ENDMDL
MODEL 9
REMARK VINA RESULT:      -0.9     26.726     26.726
REMARK  7 active torsions:
REMARK  status: ('A' for Active; 'I' for Inactive)
REMARK    1  A    between atoms: N_3  and  C_5 
REMARK    2  A    between atoms: C_14  and  N_13 
REMARK    3  A    between atoms: C_16  and  N_21 
REMARK       I    between atoms: N_21  and  C_22 
REMARK    4  A    between atoms: C_22  and  C_24 
REMARK    5  A    between atoms: C_24  and  C_25 
REMARK    6  A    between atoms: C_25  and  C_26 
REMARK    7  A    between atoms: C_29  and  O_32 
ROOT
ATOM      1 CL   UNL d   1      86.265  81.037  94.822  0.00  0.00     0.000 Cl
ENDROOT
TORSDOF 7
ENDMDL
MODEL 10
REMARK VINA RESULT:      -0.9     27.087     27.087
REMARK  7 active torsions:
REMARK  status: ('A' for Active; 'I' for Inactive)
REMARK    1  A    between atoms: N_3  and  C_5 
REMARK    2  A    between atoms: C_14  and  N_13 
REMARK    3  A    between atoms: C_16  and  N_21 
REMARK       I    between atoms: N_21  and  C_22 
REMARK    4  A    between atoms: C_22  and  C_24 
REMARK    5  A    between atoms: C_24  and  C_25 
REMARK    6  A    between atoms: C_25  and  C_26 
REMARK    7  A    between atoms: C_29  and  O_32 
ROOT
ATOM      1 CL   UNL d   1      84.881  82.611  97.332  0.00  0.00     0.000 Cl
ENDROOT
TORSDOF 7
ENDMDL
MODEL 11
REMARK VINA RESULT:      -0.9     16.418     16.418
REMARK  7 active torsions:
REMARK  status: ('A' for Active; 'I' for Inactive)
REMARK    1  A    between atoms: N_3  and  C_5 
REMARK    2  A    between atoms: C_14  and  N_13 
REMARK    3  A    between atoms: C_16  and  N_21 
REMARK       I    between atoms: N_21  and  C_22 
REMARK    4  A    between atoms: C_22  and  C_24 
REMARK    5  A    between atoms: C_24  and  C_25 
REMARK    6  A    between atoms: C_25  and  C_26 
REMARK    7  A    between atoms: C_29  and  O_32 
ROOT
ATOM      1 CL   UNL d   1      82.817  84.180  75.495  0.00  0.00     0.000 Cl
ENDROOT
TORSDOF 7
ENDMDL
MODEL 12
REMARK VINA RESULT:      -0.8      3.959      3.959
REMARK  7 active torsions:
REMARK  status: ('A' for Active; 'I' for Inactive)
REMARK    1  A    between atoms: N_3  and  C_5 
REMARK    2  A    between atoms: C_14  and  N_13 
REMARK    3  A    between atoms: C_16  and  N_21 
REMARK       I    between atoms: N_21  and  C_22 
REMARK    4  A    between atoms: C_22  and  C_24 
REMARK    5  A    between atoms: C_24  and  C_25 
REMARK    6  A    between atoms: C_25  and  C_26 
REMARK    7  A    between atoms: C_29  and  O_32 
ROOT
ATOM      1 CL   UNL d   1      68.275  88.991  73.940  0.00  0.00     0.000 Cl
ENDROOT
TORSDOF 7
ENDMDL
MODEL 13
REMARK VINA RESULT:      -0.8     32.044     32.044
REMARK  7 active torsions:
REMARK  status: ('A' for Active; 'I' for Inactive)
REMARK    1  A    between atoms: N_3  and  C_5 
REMARK    2  A    between atoms: C_14  and  N_13 
REMARK    3  A    between atoms: C_16  and  N_21 
REMARK       I    between atoms: N_21  and  C_22 
REMARK    4  A    between atoms: C_22  and  C_24 
REMARK    5  A    between atoms: C_24  and  C_25 
REMARK    6  A    between atoms: C_25  and  C_26 
REMARK    7  A    between atoms: C_29  and  O_32 
ROOT
ATOM      1 CL   UNL d   1      68.307  68.389 102.471  0.00  0.00     0.000 Cl
ENDROOT
TORSDOF 7
ENDMDL
MODEL 14
REMARK VINA RESULT:      -0.8     31.724     31.724
REMARK  7 active torsions:
REMARK  status: ('A' for Active; 'I' for Inactive)
REMARK    1  A    between atoms: N_3  and  C_5 
REMARK    2  A    between atoms: C_14  and  N_13 
REMARK    3  A    between atoms: C_16  and  N_21 
REMARK       I    between atoms: N_21  and  C_22 
REMARK    4  A    between atoms: C_22  and  C_24 
REMARK    5  A    between atoms: C_24  and  C_25 
REMARK    6  A    between atoms: C_25  and  C_26 
REMARK    7  A    between atoms: C_29  and  O_32 
ROOT
ATOM      1 CL   UNL d   1      70.945  75.550 106.351  0.00  0.00     0.000 Cl
ENDROOT
TORSDOF 7
ENDMDL
MODEL 15
REMARK VINA RESULT:      -0.8     17.042     17.042
REMARK  7 active torsions:
REMARK  status: ('A' for Active; 'I' for Inactive)
REMARK    1  A    between atoms: N_3  and  C_5 
REMARK    2  A    between atoms: C_14  and  N_13 
REMARK    3  A    between atoms: C_16  and  N_21 
REMARK       I    between atoms: N_21  and  C_22 
REMARK    4  A    between atoms: C_22  and  C_24 
REMARK    5  A    between atoms: C_24  and  C_25 
REMARK    6  A    between atoms: C_25  and  C_26 
REMARK    7  A    between atoms: C_29  and  O_32 
ROOT
ATOM      1 CL   UNL d   1      66.166  71.981  74.832  0.00  0.00     0.000 Cl
ENDROOT
TORSDOF 7
ENDMDL
MODEL 16
REMARK VINA RESULT:      -0.8     16.723     16.723
REMARK  7 active torsions:
REMARK  status: ('A' for Active; 'I' for Inactive)
REMARK    1  A    between atoms: N_3  and  C_5 
REMARK    2  A    between atoms: C_14  and  N_13 
REMARK    3  A    between atoms: C_16  and  N_21 
REMARK       I    between atoms: N_21  and  C_22 
REMARK    4  A    between atoms: C_22  and  C_24 
REMARK    5  A    between atoms: C_24  and  C_25 
REMARK    6  A    between atoms: C_25  and  C_26 
REMARK    7  A    between atoms: C_29  and  O_32 
ROOT
ATOM      1 CL   UNL d   1      61.875  73.120  80.432  0.00  0.00     0.000 Cl
ENDROOT
TORSDOF 7
ENDMDL
MODEL 17
REMARK VINA RESULT:      -0.8     16.391     16.391
REMARK  7 active torsions:
REMARK  status: ('A' for Active; 'I' for Inactive)
REMARK    1  A    between atoms: N_3  and  C_5 
REMARK    2  A    between atoms: C_14  and  N_13 
REMARK    3  A    between atoms: C_16  and  N_21 
REMARK       I    between atoms: N_21  and  C_22 
REMARK    4  A    between atoms: C_22  and  C_24 
REMARK    5  A    between atoms: C_24  and  C_25 
REMARK    6  A    between atoms: C_25  and  C_26 
REMARK    7  A    between atoms: C_29  and  O_32 
ROOT
ATOM      1 CL   UNL d   1      65.271  72.464  77.855  0.00  0.00     0.000 Cl
ENDROOT
TORSDOF 7
ENDMDL
MODEL 18
REMARK VINA RESULT:      -0.8     19.580     19.580
REMARK  7 active torsions:
REMARK  status: ('A' for Active; 'I' for Inactive)
REMARK    1  A    between atoms: N_3  and  C_5 
REMARK    2  A    between atoms: C_14  and  N_13 
REMARK    3  A    between atoms: C_16  and  N_21 
REMARK       I    between atoms: N_21  and  C_22 
REMARK    4  A    between atoms: C_22  and  C_24 
REMARK    5  A    between atoms: C_24  and  C_25 
REMARK    6  A    between atoms: C_25  and  C_26 
REMARK    7  A    between atoms: C_29  and  O_32 
ROOT
ATOM      1 CL   UNL d   1      58.267  72.814  84.801  0.00  0.00     0.000 Cl
ENDROOT
TORSDOF 7
ENDMDL
MODEL 19
REMARK VINA RESULT:      -0.7     27.915     27.915
REMARK  7 active torsions:
REMARK  status: ('A' for Active; 'I' for Inactive)
REMARK    1  A    between atoms: N_3  and  C_5 
REMARK    2  A    between atoms: C_14  and  N_13 
REMARK    3  A    between atoms: C_16  and  N_21 
REMARK       I    between atoms: N_21  and  C_22 
REMARK    4  A    between atoms: C_22  and  C_24 
REMARK    5  A    between atoms: C_24  and  C_25 
REMARK    6  A    between atoms: C_25  and  C_26 
REMARK    7  A    between atoms: C_29  and  O_32 
ROOT
ATOM      1 CL   UNL d   1      80.405  64.169  76.605  0.00  0.00     0.000 Cl
ENDROOT
TORSDOF 7
ENDMDL
MODEL 20
REMARK VINA RESULT:      -0.7     18.712     18.712
REMARK  7 active torsions:
REMARK  status: ('A' for Active; 'I' for Inactive)
REMARK    1  A    between atoms: N_3  and  C_5 
REMARK    2  A    between atoms: C_14  and  N_13 
REMARK    3  A    between atoms: C_16  and  N_21 
REMARK       I    between atoms: N_21  and  C_22 
REMARK    4  A    between atoms: C_22  and  C_24 
REMARK    5  A    between atoms: C_24  and  C_25 
REMARK    6  A    between atoms: C_25  and  C_26 
REMARK    7  A    between atoms: C_29  and  O_32 
ROOT
ATOM      1 CL   UNL d   1      59.114  72.189  81.021  0.00  0.00     0.000 Cl
ENDROOT
TORSDOF 7
ENDMDL
