MODEL 1
REMARK VINA RESULT:      -6.6      0.000      0.000
REMARK  8 active torsions:
REMARK  status: ('A' for Active; 'I' for Inactive)
REMARK       I    between atoms: N_1  and  C_12 
REMARK    1  A    between atoms: CA_5  and  C_6 
REMARK    2  A    between atoms: C_12  and  CA_14 
REMARK    3  A    between atoms: CA_14  and  N_15 
REMARK    4  A    between atoms: C_16  and  C_17 
REMARK    5  A    between atoms: C_16  and  C_25 
REMARK    6  A    between atoms: C_17  and  C_18 
REMARK    7  A    between atoms: C_18  and  C_19 
REMARK    8  A    between atoms: C_25  and  O_27 
ROOT
ATOM      1  O   UNK d   0      78.692  72.179  90.998  0.00  0.00    -0.232 OA
ATOM      2  C   UNK d   0      79.480  71.340  91.653  0.00  0.00    -0.000 C 
ATOM      3  C   UNK d   0      80.418  70.444  92.486  0.00  0.00     0.110 C 
ENDROOT
BRANCH   1   4
ATOM      4  C   UNK d   0      78.341  71.782  89.746  0.00  0.00     0.333 C 
ATOM      5  O   UNK d   0      79.061  71.179  88.961  0.00  0.00    -0.256 OA
BRANCH   4   6
ATOM      6  C   UNK d   0      76.948  72.258  89.479  0.00  0.00     0.187 C 
ATOM      7  N   ALA d   1      76.122  71.587  88.648  0.00  0.00    -0.232 NA
BRANCH   7   8
ATOM      8  CA  ALA d   1      75.620  70.402  89.099  0.00  0.00     0.117 C 
ATOM      9  CB  ALA d   1      74.311  70.291  89.905  0.00  0.00     0.057 C 
BRANCH   8  10
ATOM     10  C   ALA d   1      76.228  69.124  88.527  0.00  0.00     0.278 C 
ATOM     11  N   ALA d   1      77.051  68.395  89.386  0.00  0.00    -0.276 N 
ATOM     12  CA  ALA d   1      77.696  67.185  89.060  0.00  0.00     0.127 A 
ATOM     13  C   ALA d   1      77.376  68.665  90.712  0.00  0.00     0.026 A 
ATOM     14  C   ALA d   1      78.357  66.692  90.218  0.00  0.00     0.003 A 
ATOM     15  C   ALA d   1      78.215  67.579  91.295  0.00  0.00     0.058 A 
ATOM     16  C   ALA d   1      77.695  67.387  92.609  0.00  0.00     0.010 A 
ATOM     17  C   ALA d   1      76.573  68.319  93.072  0.00  0.00     0.007 A 
ATOM     18  C   ALA d   1      76.497  69.090  91.753  0.00  0.00     0.040 A 
ATOM     19  O   ALA d   1      75.991  68.812  87.357  0.00  0.00    -0.265 OA
BRANCH  12  20
ATOM     20  C   ALA d   1      77.626  66.357  87.783  0.00  0.00     0.228 C 
ATOM     21  O   ALA d   1      78.414  66.726  86.860  0.00  0.00    -0.643 OA
ATOM     22  OXT ALA d   1      76.934  65.295  87.858  0.00  0.00    -0.643 OA
ENDBRANCH  12  20
ENDBRANCH   8  10
ENDBRANCH   7   8
BRANCH   6  23
ATOM     23  C   UNK d   0      76.484  73.513  89.972  0.00  0.00    -0.035 C 
BRANCH  23  24
ATOM     24  C   UNK d   0      76.014  74.852  90.554  0.00  0.00    -0.058 C 
BRANCH  24  25
ATOM     25  C   UNK d   0      75.616  76.104  91.105  0.00  0.00     0.042 A 
ATOM     26  C   UNK d   0      74.263  76.432  91.173  0.00  0.00     0.008 A 
ATOM     27  C   UNK d   0      73.873  77.663  91.695  0.00  0.00     0.001 A 
ATOM     28  C   UNK d   0      74.835  78.565  92.143  0.00  0.00     0.000 A 
ATOM     29  C   UNK d   0      76.186  78.236  92.074  0.00  0.00     0.001 A 
ATOM     30  C   UNK d   0      76.578  77.005  91.554  0.00  0.00     0.008 A 
ENDBRANCH  24  25
ENDBRANCH  23  24
ENDBRANCH   6  23
ENDBRANCH   4   6
ENDBRANCH   1   4
TORSDOF 8
ENDMDL
MODEL 2
REMARK VINA RESULT:      -6.5     16.753     21.274
REMARK  8 active torsions:
REMARK  status: ('A' for Active; 'I' for Inactive)
REMARK       I    between atoms: N_1  and  C_12 
REMARK    1  A    between atoms: CA_5  and  C_6 
REMARK    2  A    between atoms: C_12  and  CA_14 
REMARK    3  A    between atoms: CA_14  and  N_15 
REMARK    4  A    between atoms: C_16  and  C_17 
REMARK    5  A    between atoms: C_16  and  C_25 
REMARK    6  A    between atoms: C_17  and  C_18 
REMARK    7  A    between atoms: C_18  and  C_19 
REMARK    8  A    between atoms: C_25  and  O_27 
ROOT
ATOM      1  O   UNK d   0      68.901  86.600  94.059  0.00  0.00    -0.232 OA
ATOM      2  C   UNK d   0      69.809  85.829  93.478  0.00  0.00    -0.000 C 
ATOM      3  C   UNK d   0      70.843  84.983  92.710  0.00  0.00     0.110 C 
ENDROOT
BRANCH   1   4
ATOM      4  C   UNK d   0      68.478  86.175  95.279  0.00  0.00     0.333 C 
ATOM      5  O   UNK d   0      68.206  85.019  95.577  0.00  0.00    -0.256 OA
BRANCH   4   6
ATOM      6  C   UNK d   0      68.353  87.370  96.170  0.00  0.00     0.187 C 
ATOM      7  N   ALA d   1      67.712  88.487  95.763  0.00  0.00    -0.232 NA
BRANCH   7   8
ATOM      8  CA  ALA d   1      66.352  88.423  95.676  0.00  0.00     0.117 C 
ATOM      9  CB  ALA d   1      65.492  87.491  96.552  0.00  0.00     0.057 C 
BRANCH   8  10
ATOM     10  C   ALA d   1      65.651  89.528  94.889  0.00  0.00     0.278 C 
ATOM     11  N   ALA d   1      65.372  89.250  93.552  0.00  0.00    -0.276 N 
ATOM     12  CA  ALA d   1      64.720  90.125  92.658  0.00  0.00     0.127 A 
ATOM     13  C   ALA d   1      65.626  88.083  92.837  0.00  0.00     0.026 A 
ATOM     14  C   ALA d   1      64.524  89.454  91.421  0.00  0.00     0.003 A 
ATOM     15  C   ALA d   1      65.083  88.168  91.451  0.00  0.00     0.058 A 
ATOM     16  C   ALA d   1      64.508  86.886  91.209  0.00  0.00     0.010 A 
ATOM     17  C   ALA d   1      64.660  85.823  92.299  0.00  0.00     0.007 A 
ATOM     18  C   ALA d   1      65.414  86.738  93.264  0.00  0.00     0.040 A 
ATOM     19  O   ALA d   1      65.389  90.596  95.449  0.00  0.00    -0.265 OA
BRANCH  12  20
ATOM     20  C   ALA d   1      64.121  91.503  92.909  0.00  0.00     0.228 C 
ATOM     21  O   ALA d   1      64.927  92.472  92.766  0.00  0.00    -0.643 OA
ATOM     22  OXT ALA d   1      62.860  91.533  93.044  0.00  0.00    -0.643 OA
ENDBRANCH  12  20
ENDBRANCH   8  10
ENDBRANCH   7   8
BRANCH   6  23
ATOM     23  C   UNK d   0      69.028  87.437  97.424  0.00  0.00    -0.035 C 
BRANCH  23  24
ATOM     24  C   UNK d   0      69.701  87.517  98.799  0.00  0.00    -0.058 C 
BRANCH  24  25
ATOM     25  C   UNK d   0      70.324  87.631 100.076  0.00  0.00     0.042 A 
ATOM     26  C   UNK d   0      70.868  88.849 100.475  0.00  0.00     0.008 A 
ATOM     27  C   UNK d   0      71.494  88.957 101.715  0.00  0.00     0.001 A 
ATOM     28  C   UNK d   0      71.577  87.847 102.551  0.00  0.00     0.000 A 
ATOM     29  C   UNK d   0      71.033  86.629 102.151  0.00  0.00     0.001 A 
ATOM     30  C   UNK d   0      70.406  86.519 100.911  0.00  0.00     0.008 A 
ENDBRANCH  24  25
ENDBRANCH  23  24
ENDBRANCH   6  23
ENDBRANCH   4   6
ENDBRANCH   1   4
TORSDOF 8
ENDMDL
MODEL 3
REMARK VINA RESULT:      -6.4     18.430     22.932
REMARK  8 active torsions:
REMARK  status: ('A' for Active; 'I' for Inactive)
REMARK       I    between atoms: N_1  and  C_12 
REMARK    1  A    between atoms: CA_5  and  C_6 
REMARK    2  A    between atoms: C_12  and  CA_14 
REMARK    3  A    between atoms: CA_14  and  N_15 
REMARK    4  A    between atoms: C_16  and  C_17 
REMARK    5  A    between atoms: C_16  and  C_25 
REMARK    6  A    between atoms: C_17  and  C_18 
REMARK    7  A    between atoms: C_18  and  C_19 
REMARK    8  A    between atoms: C_25  and  O_27 
ROOT
ATOM      1  O   UNK d   0      62.422  84.544  90.666  0.00  0.00    -0.232 OA
ATOM      2  C   UNK d   0      63.468  83.747  90.826  0.00  0.00    -0.000 C 
ATOM      3  C   UNK d   0      64.658  82.771  90.919  0.00  0.00     0.110 C 
ENDROOT
BRANCH   1   4
ATOM      4  C   UNK d   0      62.048  85.235  91.776  0.00  0.00     0.333 C 
ATOM      5  O   UNK d   0      62.329  84.937  92.930  0.00  0.00    -0.256 OA
BRANCH   4   6
ATOM      6  C   UNK d   0      61.193  86.383  91.343  0.00  0.00     0.187 C 
ATOM      7  N   ALA d   1      61.398  87.631  91.816  0.00  0.00    -0.232 NA
BRANCH   7   8
ATOM      8  CA  ALA d   1      62.500  88.292  91.358  0.00  0.00     0.117 C 
ATOM      9  CB  ALA d   1      62.942  88.277  89.882  0.00  0.00     0.057 C 
BRANCH   8  10
ATOM     10  C   ALA d   1      63.137  89.317  92.294  0.00  0.00     0.278 C 
ATOM     11  N   ALA d   1      64.239  88.880  93.028  0.00  0.00    -0.276 N 
ATOM     12  CA  ALA d   1      64.977  89.669  93.934  0.00  0.00     0.127 A 
ATOM     13  C   ALA d   1      64.856  87.632  93.006  0.00  0.00     0.026 A 
ATOM     14  C   ALA d   1      66.082  88.911  94.407  0.00  0.00     0.003 A 
ATOM     15  C   ALA d   1      66.064  87.612  93.879  0.00  0.00     0.058 A 
ATOM     16  C   ALA d   1      67.038  86.886  93.131  0.00  0.00     0.010 A 
ATOM     17  C   ALA d   1      66.604  86.294  91.789  0.00  0.00     0.007 A 
ATOM     18  C   ALA d   1      65.180  86.843  91.862  0.00  0.00     0.040 A 
ATOM     19  O   ALA d   1      62.650  90.449  92.373  0.00  0.00    -0.265 OA
BRANCH  12  20
ATOM     20  C   ALA d   1      64.825  91.143  94.289  0.00  0.00     0.228 C 
ATOM     21  O   ALA d   1      65.315  91.951  93.441  0.00  0.00    -0.643 OA
ATOM     22  OXT ALA d   1      64.073  91.391  95.280  0.00  0.00    -0.643 OA
ENDBRANCH  12  20
ENDBRANCH   8  10
ENDBRANCH   7   8
BRANCH   6  23
ATOM     23  C   UNK d   0      60.037  86.185  90.531  0.00  0.00    -0.035 C 
BRANCH  23  24
ATOM     24  C   UNK d   0      58.761  85.988  89.705  0.00  0.00    -0.058 C 
BRANCH  24  25
ATOM     25  C   UNK d   0      57.568  85.843  88.939  0.00  0.00     0.042 A 
ATOM     26  C   UNK d   0      57.537  84.955  87.866  0.00  0.00     0.008 A 
ATOM     27  C   UNK d   0      56.377  84.826  87.105  0.00  0.00     0.001 A 
ATOM     28  C   UNK d   0      55.254  85.589  87.415  0.00  0.00     0.000 A 
ATOM     29  C   UNK d   0      55.286  86.476  88.487  0.00  0.00     0.001 A 
ATOM     30  C   UNK d   0      56.445  86.606  89.250  0.00  0.00     0.008 A 
ENDBRANCH  24  25
ENDBRANCH  23  24
ENDBRANCH   6  23
ENDBRANCH   4   6
ENDBRANCH   1   4
TORSDOF 8
ENDMDL
MODEL 4
REMARK VINA RESULT:      -6.4     19.657     23.074
REMARK  8 active torsions:
REMARK  status: ('A' for Active; 'I' for Inactive)
REMARK       I    between atoms: N_1  and  C_12 
REMARK    1  A    between atoms: CA_5  and  C_6 
REMARK    2  A    between atoms: C_12  and  CA_14 
REMARK    3  A    between atoms: CA_14  and  N_15 
REMARK    4  A    between atoms: C_16  and  C_17 
REMARK    5  A    between atoms: C_16  and  C_25 
REMARK    6  A    between atoms: C_17  and  C_18 
REMARK    7  A    between atoms: C_18  and  C_19 
REMARK    8  A    between atoms: C_25  and  O_27 
ROOT
ATOM      1  O   UNK d   0      61.273  86.982  94.266  0.00  0.00    -0.232 OA
ATOM      2  C   UNK d   0      62.225  87.123  95.176  0.00  0.00    -0.000 C 
ATOM      3  C   UNK d   0      63.274  87.367  96.280  0.00  0.00     0.110 C 
ENDROOT
BRANCH   1   4
ATOM      4  C   UNK d   0      61.625  86.258  93.171  0.00  0.00     0.333 C 
ATOM      5  O   UNK d   0      62.339  85.264  93.171  0.00  0.00    -0.256 OA
BRANCH   4   6
ATOM      6  C   UNK d   0      61.033  86.921  91.966  0.00  0.00     0.187 C 
ATOM      7  N   ALA d   1      61.216  88.237  91.727  0.00  0.00    -0.232 NA
BRANCH   7   8
ATOM      8  CA  ALA d   1      62.458  88.624  91.317  0.00  0.00     0.117 C 
ATOM      9  CB  ALA d   1      62.988  88.393  89.888  0.00  0.00     0.057 C 
BRANCH   8  10
ATOM     10  C   ALA d   1      63.226  89.581  92.227  0.00  0.00     0.278 C 
ATOM     11  N   ALA d   1      64.312  89.040  92.914  0.00  0.00    -0.276 N 
ATOM     12  CA  ALA d   1      65.157  89.752  93.789  0.00  0.00     0.127 A 
ATOM     13  C   ALA d   1      64.810  87.741  92.862  0.00  0.00     0.026 A 
ATOM     14  C   ALA d   1      66.206  88.893  94.213  0.00  0.00     0.003 A 
ATOM     15  C   ALA d   1      66.047  87.604  93.684  0.00  0.00     0.058 A 
ATOM     16  C   ALA d   1      66.918  86.797  92.894  0.00  0.00     0.010 A 
ATOM     17  C   ALA d   1      66.376  86.255  91.569  0.00  0.00     0.007 A 
ATOM     18  C   ALA d   1      65.012  86.932  91.704  0.00  0.00     0.040 A 
ATOM     19  O   ALA d   1      62.848  90.751  92.330  0.00  0.00    -0.265 OA
BRANCH  12  20
ATOM     20  C   ALA d   1      65.156  91.231  94.154  0.00  0.00     0.228 C 
ATOM     21  O   ALA d   1      64.229  91.588  94.943  0.00  0.00    -0.643 OA
ATOM     22  OXT ALA d   1      66.178  91.886  93.782  0.00  0.00    -0.643 OA
ENDBRANCH  12  20
ENDBRANCH   8  10
ENDBRANCH   7   8
BRANCH   6  23
ATOM     23  C   UNK d   0      60.135  86.228  91.103  0.00  0.00    -0.035 C 
BRANCH  23  24
ATOM     24  C   UNK d   0      59.169  85.530  90.138  0.00  0.00    -0.058 C 
BRANCH  24  25
ATOM     25  C   UNK d   0      58.275  84.848  89.262  0.00  0.00     0.042 A 
ATOM     26  C   UNK d   0      58.018  83.492  89.453  0.00  0.00     0.008 A 
ATOM     27  C   UNK d   0      57.159  82.820  88.587  0.00  0.00     0.001 A 
ATOM     28  C   UNK d   0      56.563  83.502  87.530  0.00  0.00     0.000 A 
ATOM     29  C   UNK d   0      56.821  84.857  87.340  0.00  0.00     0.001 A 
ATOM     30  C   UNK d   0      57.679  85.532  88.206  0.00  0.00     0.008 A 
ENDBRANCH  24  25
ENDBRANCH  23  24
ENDBRANCH   6  23
ENDBRANCH   4   6
ENDBRANCH   1   4
TORSDOF 8
ENDMDL
MODEL 5
REMARK VINA RESULT:      -6.3     11.102     14.127
REMARK  8 active torsions:
REMARK  status: ('A' for Active; 'I' for Inactive)
REMARK       I    between atoms: N_1  and  C_12 
REMARK    1  A    between atoms: CA_5  and  C_6 
REMARK    2  A    between atoms: C_12  and  CA_14 
REMARK    3  A    between atoms: CA_14  and  N_15 
REMARK    4  A    between atoms: C_16  and  C_17 
REMARK    5  A    between atoms: C_16  and  C_25 
REMARK    6  A    between atoms: C_17  and  C_18 
REMARK    7  A    between atoms: C_18  and  C_19 
REMARK    8  A    between atoms: C_25  and  O_27 
ROOT
ATOM      1  O   UNK d   0      77.138  82.614  94.434  0.00  0.00    -0.232 OA
ATOM      2  C   UNK d   0      75.968  82.552  93.815  0.00  0.00    -0.000 C 
ATOM      3  C   UNK d   0      74.577  82.568  93.152  0.00  0.00     0.110 C 
ENDROOT
BRANCH   1   4
ATOM      4  C   UNK d   0      77.896  81.489  94.348  0.00  0.00     0.333 C 
ATOM      5  O   UNK d   0      77.895  80.698  93.413  0.00  0.00    -0.256 OA
BRANCH   4   6
ATOM      6  C   UNK d   0      78.686  81.362  95.612  0.00  0.00     0.187 C 
ATOM      7  N   ALA d   1      78.093  81.438  96.823  0.00  0.00    -0.232 NA
BRANCH   7   8
ATOM      8  CA  ALA d   1      77.330  80.375  97.205  0.00  0.00     0.117 C 
ATOM      9  CB  ALA d   1      77.141  79.114  96.340  0.00  0.00     0.057 C 
BRANCH   8  10
ATOM     10  C   ALA d   1      76.893  80.320  98.668  0.00  0.00     0.278 C 
ATOM     11  N   ALA d   1      75.706  80.981  98.982  0.00  0.00    -0.276 N 
ATOM     12  CA  ALA d   1      75.124  81.040 100.265  0.00  0.00     0.127 A 
ATOM     13  C   ALA d   1      74.846  81.670  98.132  0.00  0.00     0.026 A 
ATOM     14  C   ALA d   1      73.874  81.710 100.170  0.00  0.00     0.003 A 
ATOM     15  C   ALA d   1      73.637  82.151  98.860  0.00  0.00     0.058 A 
ATOM     16  C   ALA d   1      72.554  81.905  97.965  0.00  0.00     0.010 A 
ATOM     17  C   ALA d   1      72.891  81.344  96.582  0.00  0.00     0.007 A 
ATOM     18  C   ALA d   1      74.396  81.268  96.838  0.00  0.00     0.040 A 
ATOM     19  O   ALA d   1      77.601  79.729  99.488  0.00  0.00    -0.265 OA
BRANCH  12  20
ATOM     20  C   ALA d   1      75.567  80.383 101.566  0.00  0.00     0.228 C 
ATOM     21  O   ALA d   1      76.350  81.082 102.280  0.00  0.00    -0.643 OA
ATOM     22  OXT ALA d   1      74.962  79.310 101.870  0.00  0.00    -0.643 OA
ENDBRANCH  12  20
ENDBRANCH   8  10
ENDBRANCH   7   8
BRANCH   6  23
ATOM     23  C   UNK d   0      80.111  81.303  95.596  0.00  0.00    -0.035 C 
BRANCH  23  24
ATOM     24  C   UNK d   0      81.641  81.239  95.519  0.00  0.00    -0.058 C 
BRANCH  24  25
ATOM     25  C   UNK d   0      83.064  81.219  95.444  0.00  0.00     0.042 A 
ATOM     26  C   UNK d   0      83.690  80.770  94.284  0.00  0.00     0.008 A 
ATOM     27  C   UNK d   0      85.081  80.732  94.216  0.00  0.00     0.001 A 
ATOM     28  C   UNK d   0      85.842  81.140  95.309  0.00  0.00     0.000 A 
ATOM     29  C   UNK d   0      85.215  81.589  96.468  0.00  0.00     0.001 A 
ATOM     30  C   UNK d   0      83.824  81.628  96.537  0.00  0.00     0.008 A 
ENDBRANCH  24  25
ENDBRANCH  23  24
ENDBRANCH   6  23
ENDBRANCH   4   6
ENDBRANCH   1   4
TORSDOF 8
ENDMDL
MODEL 6
REMARK VINA RESULT:      -6.3     20.795     24.137
REMARK  8 active torsions:
REMARK  status: ('A' for Active; 'I' for Inactive)
REMARK       I    between atoms: N_1  and  C_12 
REMARK    1  A    between atoms: CA_5  and  C_6 
REMARK    2  A    between atoms: C_12  and  CA_14 
REMARK    3  A    between atoms: CA_14  and  N_15 
REMARK    4  A    between atoms: C_16  and  C_17 
REMARK    5  A    between atoms: C_16  and  C_25 
REMARK    6  A    between atoms: C_17  and  C_18 
REMARK    7  A    between atoms: C_18  and  C_19 
REMARK    8  A    between atoms: C_25  and  O_27 
ROOT
ATOM      1  O   UNK d   0      60.814  86.698  94.722  0.00  0.00    -0.232 OA
ATOM      2  C   UNK d   0      60.014  86.066  95.569  0.00  0.00    -0.000 C 
ATOM      3  C   UNK d   0      59.092  85.243  96.490  0.00  0.00     0.110 C 
ENDROOT
BRANCH   1   4
ATOM      4  C   UNK d   0      60.821  88.052  94.838  0.00  0.00     0.333 C 
ATOM      5  O   UNK d   0      60.797  88.679  95.889  0.00  0.00    -0.256 OA
BRANCH   4   6
ATOM      6  C   UNK d   0      60.809  88.636  93.460  0.00  0.00     0.187 C 
ATOM      7  N   ALA d   1      61.473  89.777  93.174  0.00  0.00    -0.232 NA
BRANCH   7   8
ATOM      8  CA  ALA d   1      62.834  89.703  93.119  0.00  0.00     0.117 C 
ATOM      9  CB  ALA d   1      63.605  89.193  91.886  0.00  0.00     0.057 C 
BRANCH   8  10
ATOM     10  C   ALA d   1      63.616  90.429  94.212  0.00  0.00     0.278 C 
ATOM     11  N   ALA d   1      64.226  89.624  95.173  0.00  0.00    -0.276 N 
ATOM     12  CA  ALA d   1      65.002  90.092  96.252  0.00  0.00     0.127 A 
ATOM     13  C   ALA d   1      64.238  88.234  95.258  0.00  0.00     0.026 A 
ATOM     14  C   ALA d   1      65.538  88.976  96.949  0.00  0.00     0.003 A 
ATOM     15  C   ALA d   1      65.088  87.770  96.392  0.00  0.00     0.058 A 
ATOM     16  C   ALA d   1      65.801  86.648  95.874  0.00  0.00     0.010 A 
ATOM     17  C   ALA d   1      65.474  86.198  94.449  0.00  0.00     0.007 A 
ATOM     18  C   ALA d   1      64.445  87.300  94.199  0.00  0.00     0.040 A 
ATOM     19  O   ALA d   1      63.655  91.663  94.209  0.00  0.00    -0.265 OA
BRANCH  12  20
ATOM     20  C   ALA d   1      65.418  91.514  96.607  0.00  0.00     0.228 C 
ATOM     21  O   ALA d   1      64.700  92.077  97.490  0.00  0.00    -0.643 OA
ATOM     22  OXT ALA d   1      66.528  91.895  96.126  0.00  0.00    -0.643 OA
ENDBRANCH  12  20
ENDBRANCH   8  10
ENDBRANCH   7   8
BRANCH   6  23
ATOM     23  C   UNK d   0      59.981  88.098  92.432  0.00  0.00    -0.035 C 
BRANCH  23  24
ATOM     24  C   UNK d   0      59.044  87.522  91.363  0.00  0.00    -0.058 C 
BRANCH  24  25
ATOM     25  C   UNK d   0      58.142  86.998  90.393  0.00  0.00     0.042 A 
ATOM     26  C   UNK d   0      56.807  87.394  90.402  0.00  0.00     0.008 A 
ATOM     27  C   UNK d   0      55.919  86.868  89.466  0.00  0.00     0.001 A 
ATOM     28  C   UNK d   0      56.368  85.943  88.526  0.00  0.00     0.000 A 
ATOM     29  C   UNK d   0      57.703  85.548  88.518  0.00  0.00     0.001 A 
ATOM     30  C   UNK d   0      58.592  86.074  89.453  0.00  0.00     0.008 A 
ENDBRANCH  24  25
ENDBRANCH  23  24
ENDBRANCH   6  23
ENDBRANCH   4   6
ENDBRANCH   1   4
TORSDOF 8
ENDMDL
MODEL 7
REMARK VINA RESULT:      -6.1     16.504     22.263
REMARK  8 active torsions:
REMARK  status: ('A' for Active; 'I' for Inactive)
REMARK       I    between atoms: N_1  and  C_12 
REMARK    1  A    between atoms: CA_5  and  C_6 
REMARK    2  A    between atoms: C_12  and  CA_14 
REMARK    3  A    between atoms: CA_14  and  N_15 
REMARK    4  A    between atoms: C_16  and  C_17 
REMARK    5  A    between atoms: C_16  and  C_25 
REMARK    6  A    between atoms: C_17  and  C_18 
REMARK    7  A    between atoms: C_18  and  C_19 
REMARK    8  A    between atoms: C_25  and  O_27 
ROOT
ATOM      1  O   UNK d   0      65.049  83.755  90.434  0.00  0.00    -0.232 OA
ATOM      2  C   UNK d   0      65.685  82.616  90.664  0.00  0.00    -0.000 C 
ATOM      3  C   UNK d   0      66.354  81.241  90.866  0.00  0.00     0.110 C 
ENDROOT
BRANCH   1   4
ATOM      4  C   UNK d   0      65.335  84.761  91.301  0.00  0.00     0.333 C 
ATOM      5  O   UNK d   0      66.443  85.019  91.755  0.00  0.00    -0.256 OA
BRANCH   4   6
ATOM      6  C   UNK d   0      64.056  85.458  91.644  0.00  0.00     0.187 C 
ATOM      7  N   ALA d   1      64.040  86.539  92.453  0.00  0.00    -0.232 NA
BRANCH   7   8
ATOM      8  CA  ALA d   1      64.525  87.705  91.937  0.00  0.00     0.117 C 
ATOM      9  CB  ALA d   1      64.183  88.211  90.522  0.00  0.00     0.057 C 
BRANCH   8  10
ATOM     10  C   ALA d   1      65.190  88.675  92.912  0.00  0.00     0.278 C 
ATOM     11  N   ALA d   1      64.349  89.596  93.535  0.00  0.00    -0.276 N 
ATOM     12  CA  ALA d   1      64.758  90.565  94.474  0.00  0.00     0.127 A 
ATOM     13  C   ALA d   1      62.970  89.737  93.407  0.00  0.00     0.026 A 
ATOM     14  C   ALA d   1      63.609  91.245  94.961  0.00  0.00     0.003 A 
ATOM     15  C   ALA d   1      62.446  90.790  94.323  0.00  0.00     0.058 A 
ATOM     16  C   ALA d   1      61.237  90.243  94.847  0.00  0.00     0.010 A 
ATOM     17  C   ALA d   1      60.785  88.882  94.316  0.00  0.00     0.007 A 
ATOM     18  C   ALA d   1      61.988  88.701  93.390  0.00  0.00     0.040 A 
ATOM     19  O   ALA d   1      66.411  88.618  93.083  0.00  0.00    -0.265 OA
BRANCH  12  20
ATOM     20  C   ALA d   1      66.134  90.814  95.079  0.00  0.00     0.228 C 
ATOM     21  O   ALA d   1      66.765  91.799  94.586  0.00  0.00    -0.643 OA
ATOM     22  OXT ALA d   1      66.406  90.136  96.116  0.00  0.00    -0.643 OA
ENDBRANCH  12  20
ENDBRANCH   8  10
ENDBRANCH   7   8
BRANCH   6  23
ATOM     23  C   UNK d   0      62.792  84.927  91.253  0.00  0.00    -0.035 C 
BRANCH  23  24
ATOM     24  C   UNK d   0      61.461  84.315  90.800  0.00  0.00    -0.058 C 
BRANCH  24  25
ATOM     25  C   UNK d   0      60.214  83.743  90.418  0.00  0.00     0.042 A 
ATOM     26  C   UNK d   0      60.093  82.360  90.298  0.00  0.00     0.008 A 
ATOM     27  C   UNK d   0      58.879  81.800  89.907  0.00  0.00     0.001 A 
ATOM     28  C   UNK d   0      57.790  82.624  89.631  0.00  0.00     0.000 A 
ATOM     29  C   UNK d   0      57.912  84.005  89.751  0.00  0.00     0.001 A 
ATOM     30  C   UNK d   0      59.126  84.567  90.143  0.00  0.00     0.008 A 
ENDBRANCH  24  25
ENDBRANCH  23  24
ENDBRANCH   6  23
ENDBRANCH   4   6
ENDBRANCH   1   4
TORSDOF 8
ENDMDL
MODEL 8
REMARK VINA RESULT:      -6.0     21.616     23.920
REMARK  8 active torsions:
REMARK  status: ('A' for Active; 'I' for Inactive)
REMARK       I    between atoms: N_1  and  C_12 
REMARK    1  A    between atoms: CA_5  and  C_6 
REMARK    2  A    between atoms: C_12  and  CA_14 
REMARK    3  A    between atoms: CA_14  and  N_15 
REMARK    4  A    between atoms: C_16  and  C_17 
REMARK    5  A    between atoms: C_16  and  C_25 
REMARK    6  A    between atoms: C_17  and  C_18 
REMARK    7  A    between atoms: C_18  and  C_19 
REMARK    8  A    between atoms: C_25  and  O_27 
ROOT
ATOM      1  O   UNK d   0      58.678  87.434  93.253  0.00  0.00    -0.232 OA
ATOM      2  C   UNK d   0      59.005  86.769  94.351  0.00  0.00    -0.000 C 
ATOM      3  C   UNK d   0      59.280  85.969  95.640  0.00  0.00     0.110 C 
ENDROOT
BRANCH   1   4
ATOM      4  C   UNK d   0      59.624  88.298  92.799  0.00  0.00     0.333 C 
ATOM      5  O   UNK d   0      59.968  89.335  93.351  0.00  0.00    -0.256 OA
BRANCH   4   6
ATOM      6  C   UNK d   0      60.129  87.786  91.487  0.00  0.00     0.187 C 
ATOM      7  N   ALA d   1      61.284  88.239  90.953  0.00  0.00    -0.232 NA
BRANCH   7   8
ATOM      8  CA  ALA d   1      62.442  87.829  91.546  0.00  0.00     0.117 C 
ATOM      9  CB  ALA d   1      63.047  86.427  91.341  0.00  0.00     0.057 C 
BRANCH   8  10
ATOM     10  C   ALA d   1      63.310  88.904  92.196  0.00  0.00     0.278 C 
ATOM     11  N   ALA d   1      63.370  88.890  93.589  0.00  0.00    -0.276 N 
ATOM     12  CA  ALA d   1      64.121  89.783  94.380  0.00  0.00     0.127 A 
ATOM     13  C   ALA d   1      62.758  88.006  94.474  0.00  0.00     0.026 A 
ATOM     14  C   ALA d   1      64.013  89.391  95.742  0.00  0.00     0.003 A 
ATOM     15  C   ALA d   1      63.157  88.289  95.882  0.00  0.00     0.058 A 
ATOM     16  C   ALA d   1      63.366  87.003  96.464  0.00  0.00     0.010 A 
ATOM     17  C   ALA d   1      63.068  85.777  95.599  0.00  0.00     0.007 A 
ATOM     18  C   ALA d   1      62.672  86.586  94.364  0.00  0.00     0.040 A 
ATOM     19  O   ALA d   1      63.887  89.729  91.482  0.00  0.00    -0.265 OA
BRANCH  12  20
ATOM     20  C   ALA d   1      65.068  90.898  93.956  0.00  0.00     0.228 C 
ATOM     21  O   ALA d   1      66.295  90.576  93.923  0.00  0.00    -0.643 OA
ATOM     22  OXT ALA d   1      64.511  91.947  93.510  0.00  0.00    -0.643 OA
ENDBRANCH  12  20
ENDBRANCH   8  10
ENDBRANCH   7   8
BRANCH   6  23
ATOM     23  C   UNK d   0      59.345  86.913  90.677  0.00  0.00    -0.035 C 
BRANCH  23  24
ATOM     24  C   UNK d   0      58.493  86.019  89.768  0.00  0.00    -0.058 C 
BRANCH  24  25
ATOM     25  C   UNK d   0      57.722  85.156  88.937  0.00  0.00     0.042 A 
ATOM     26  C   UNK d   0      57.734  83.782  89.164  0.00  0.00     0.008 A 
ATOM     27  C   UNK d   0      56.995  82.935  88.341  0.00  0.00     0.001 A 
ATOM     28  C   UNK d   0      56.249  83.464  87.290  0.00  0.00     0.000 A 
ATOM     29  C   UNK d   0      56.238  84.837  87.064  0.00  0.00     0.001 A 
ATOM     30  C   UNK d   0      56.976  85.686  87.887  0.00  0.00     0.008 A 
ENDBRANCH  24  25
ENDBRANCH  23  24
ENDBRANCH   6  23
ENDBRANCH   4   6
ENDBRANCH   1   4
TORSDOF 8
ENDMDL
MODEL 9
REMARK VINA RESULT:      -5.9     13.549     15.974
REMARK  8 active torsions:
REMARK  status: ('A' for Active; 'I' for Inactive)
REMARK       I    between atoms: N_1  and  C_12 
REMARK    1  A    between atoms: CA_5  and  C_6 
REMARK    2  A    between atoms: C_12  and  CA_14 
REMARK    3  A    between atoms: CA_14  and  N_15 
REMARK    4  A    between atoms: C_16  and  C_17 
REMARK    5  A    between atoms: C_16  and  C_25 
REMARK    6  A    between atoms: C_17  and  C_18 
REMARK    7  A    between atoms: C_18  and  C_19 
REMARK    8  A    between atoms: C_25  and  O_27 
ROOT
ATOM      1  O   UNK d   0      67.287  71.221  96.085  0.00  0.00    -0.232 OA
ATOM      2  C   UNK d   0      67.733  71.645  97.258  0.00  0.00    -0.000 C 
ATOM      3  C   UNK d   0      68.338  72.180  98.571  0.00  0.00     0.110 C 
ENDROOT
BRANCH   1   4
ATOM      4  C   UNK d   0      66.294  70.295  96.146  0.00  0.00     0.333 C 
ATOM      5  O   UNK d   0      66.435  69.115  96.440  0.00  0.00    -0.256 OA
BRANCH   4   6
ATOM      6  C   UNK d   0      65.015  70.957  95.741  0.00  0.00     0.187 C 
ATOM      7  N   ALA d   1      63.902  70.861  96.500  0.00  0.00    -0.232 NA
BRANCH   7   8
ATOM      8  CA  ALA d   1      63.885  71.567  97.666  0.00  0.00     0.117 C 
ATOM      9  CB  ALA d   1      64.541  71.067  98.968  0.00  0.00     0.057 C 
BRANCH   8  10
ATOM     10  C   ALA d   1      63.457  73.032  97.588  0.00  0.00     0.278 C 
ATOM     11  N   ALA d   1      62.088  73.279  97.671  0.00  0.00    -0.276 N 
ATOM     12  CA  ALA d   1      61.488  74.554  97.634  0.00  0.00     0.127 A 
ATOM     13  C   ALA d   1      61.050  72.365  97.840  0.00  0.00     0.026 A 
ATOM     14  C   ALA d   1      60.091  74.410  97.849  0.00  0.00     0.003 A 
ATOM     15  C   ALA d   1      59.737  73.058  97.971  0.00  0.00     0.058 A 
ATOM     16  C   ALA d   1      59.058  72.353  99.009  0.00  0.00     0.010 A 
ATOM     17  C   ALA d   1      59.753  71.126  99.604  0.00  0.00     0.007 A 
ATOM     18  C   ALA d   1      61.006  71.257  98.738  0.00  0.00     0.040 A 
ATOM     19  O   ALA d   1      64.316  73.905  97.437  0.00  0.00    -0.265 OA
BRANCH  12  20
ATOM     20  C   ALA d   1      62.134  75.932  97.564  0.00  0.00     0.228 C 
ATOM     21  O   ALA d   1      62.170  76.449  96.405  0.00  0.00    -0.643 OA
ATOM     22  OXT ALA d   1      62.387  76.474  98.682  0.00  0.00    -0.643 OA
ENDBRANCH  12  20
ENDBRANCH   8  10
ENDBRANCH   7   8
BRANCH   6  23
ATOM     23  C   UNK d   0      64.875  71.591  94.471  0.00  0.00    -0.035 C 
BRANCH  23  24
ATOM     24  C   UNK d   0      64.667  72.258  93.106  0.00  0.00    -0.058 C 
BRANCH  24  25
ATOM     25  C   UNK d   0      64.477  72.842  91.821  0.00  0.00     0.042 A 
ATOM     26  C   UNK d   0      64.928  74.137  91.575  0.00  0.00     0.008 A 
ATOM     27  C   UNK d   0      64.727  74.717  90.325  0.00  0.00     0.001 A 
ATOM     28  C   UNK d   0      64.073  74.003  89.324  0.00  0.00     0.000 A 
ATOM     29  C   UNK d   0      63.623  72.709  89.571  0.00  0.00     0.001 A 
ATOM     30  C   UNK d   0      63.824  72.127  90.821  0.00  0.00     0.008 A 
ENDBRANCH  24  25
ENDBRANCH  23  24
ENDBRANCH   6  23
ENDBRANCH   4   6
ENDBRANCH   1   4
TORSDOF 8
ENDMDL
MODEL 10
REMARK VINA RESULT:      -5.9     19.091     22.741
REMARK  8 active torsions:
REMARK  status: ('A' for Active; 'I' for Inactive)
REMARK       I    between atoms: N_1  and  C_12 
REMARK    1  A    between atoms: CA_5  and  C_6 
REMARK    2  A    between atoms: C_12  and  CA_14 
REMARK    3  A    between atoms: CA_14  and  N_15 
REMARK    4  A    between atoms: C_16  and  C_17 
REMARK    5  A    between atoms: C_16  and  C_25 
REMARK    6  A    between atoms: C_17  and  C_18 
REMARK    7  A    between atoms: C_18  and  C_19 
REMARK    8  A    between atoms: C_25  and  O_27 
ROOT
ATOM      1  O   UNK d   0      62.196  87.902  89.453  0.00  0.00    -0.232 OA
ATOM      2  C   UNK d   0      62.964  88.756  90.113  0.00  0.00    -0.000 C 
ATOM      3  C   UNK d   0      63.944  89.713  90.822  0.00  0.00     0.110 C 
ENDROOT
BRANCH   1   4
ATOM      4  C   UNK d   0      60.972  87.685  90.004  0.00  0.00     0.333 C 
ATOM      5  O   UNK d   0      60.324  88.499  90.648  0.00  0.00    -0.256 OA
BRANCH   4   6
ATOM      6  C   UNK d   0      60.585  86.265  89.730  0.00  0.00     0.187 C 
ATOM      7  N   ALA d   1      61.468  85.255  89.878  0.00  0.00    -0.232 NA
BRANCH   7   8
ATOM      8  CA  ALA d   1      61.802  84.907  91.154  0.00  0.00     0.117 C 
ATOM      9  CB  ALA d   1      60.911  84.026  92.051  0.00  0.00     0.057 C 
BRANCH   8  10
ATOM     10  C   ALA d   1      63.243  85.161  91.592  0.00  0.00     0.278 C 
ATOM     11  N   ALA d   1      63.434  86.183  92.520  0.00  0.00    -0.276 N 
ATOM     12  CA  ALA d   1      64.678  86.567  93.062  0.00  0.00     0.127 A 
ATOM     13  C   ALA d   1      62.479  86.994  93.126  0.00  0.00     0.026 A 
ATOM     14  C   ALA d   1      64.460  87.568  94.047  0.00  0.00     0.003 A 
ATOM     15  C   ALA d   1      63.100  87.902  94.132  0.00  0.00     0.058 A 
ATOM     16  C   ALA d   1      62.196  87.891  95.236  0.00  0.00     0.010 A 
ATOM     17  C   ALA d   1      60.899  87.095  95.081  0.00  0.00     0.007 A 
ATOM     18  C   ALA d   1      61.222  86.597  93.673  0.00  0.00     0.040 A 
ATOM     19  O   ALA d   1      64.152  84.485  91.101  0.00  0.00    -0.265 OA
BRANCH  12  20
ATOM     20  C   ALA d   1      66.061  85.966  92.845  0.00  0.00     0.228 C 
ATOM     21  O   ALA d   1      66.732  86.490  91.904  0.00  0.00    -0.643 OA
ATOM     22  OXT ALA d   1      66.449  85.153  93.738  0.00  0.00    -0.643 OA
ENDBRANCH  12  20
ENDBRANCH   8  10
ENDBRANCH   7   8
BRANCH   6  23
ATOM     23  C   UNK d   0      59.319  85.936  89.164  0.00  0.00    -0.035 C 
BRANCH  23  24
ATOM     24  C   UNK d   0      57.979  85.594  88.500  0.00  0.00    -0.058 C 
BRANCH  24  25
ATOM     25  C   UNK d   0      56.751  85.244  87.868  0.00  0.00     0.042 A 
ATOM     26  C   UNK d   0      55.895  86.245  87.415  0.00  0.00     0.008 A 
ATOM     27  C   UNK d   0      54.686  85.904  86.813  0.00  0.00     0.001 A 
ATOM     28  C   UNK d   0      54.333  84.565  86.669  0.00  0.00     0.000 A 
ATOM     29  C   UNK d   0      55.190  83.565  87.122  0.00  0.00     0.001 A 
ATOM     30  C   UNK d   0      56.400  83.904  87.724  0.00  0.00     0.008 A 
ENDBRANCH  24  25
ENDBRANCH  23  24
ENDBRANCH   6  23
ENDBRANCH   4   6
ENDBRANCH   1   4
TORSDOF 8
ENDMDL
MODEL 11
REMARK VINA RESULT:      -5.9     19.228     23.239
REMARK  8 active torsions:
REMARK  status: ('A' for Active; 'I' for Inactive)
REMARK       I    between atoms: N_1  and  C_12 
REMARK    1  A    between atoms: CA_5  and  C_6 
REMARK    2  A    between atoms: C_12  and  CA_14 
REMARK    3  A    between atoms: CA_14  and  N_15 
REMARK    4  A    between atoms: C_16  and  C_17 
REMARK    5  A    between atoms: C_16  and  C_25 
REMARK    6  A    between atoms: C_17  and  C_18 
REMARK    7  A    between atoms: C_18  and  C_19 
REMARK    8  A    between atoms: C_25  and  O_27 
ROOT
ATOM      1  O   UNK d   0      61.946  84.003  92.737  0.00  0.00    -0.232 OA
ATOM      2  C   UNK d   0      63.150  83.979  93.290  0.00  0.00    -0.000 C 
ATOM      3  C   UNK d   0      64.502  83.938  94.029  0.00  0.00     0.110 C 
ENDROOT
BRANCH   1   4
ATOM      4  C   UNK d   0      61.905  84.480  91.465  0.00  0.00     0.333 C 
ATOM      5  O   UNK d   0      62.797  84.371  90.633  0.00  0.00    -0.256 OA
BRANCH   4   6
ATOM      6  C   UNK d   0      60.608  85.203  91.280  0.00  0.00     0.187 C 
ATOM      7  N   ALA d   1      60.307  86.302  92.006  0.00  0.00    -0.232 NA
BRANCH   7   8
ATOM      8  CA  ALA d   1      60.978  87.449  91.699  0.00  0.00     0.117 C 
ATOM      9  CB  ALA d   1      61.302  87.879  90.256  0.00  0.00     0.057 C 
BRANCH   8  10
ATOM     10  C   ALA d   1      61.149  88.476  92.816  0.00  0.00     0.278 C 
ATOM     11  N   ALA d   1      62.367  88.453  93.495  0.00  0.00    -0.276 N 
ATOM     12  CA  ALA d   1      62.730  89.322  94.544  0.00  0.00     0.127 A 
ATOM     13  C   ALA d   1      63.467  87.629  93.274  0.00  0.00     0.026 A 
ATOM     14  C   ALA d   1      64.078  89.062  94.909  0.00  0.00     0.003 A 
ATOM     15  C   ALA d   1      64.605  87.997  94.164  0.00  0.00     0.058 A 
ATOM     16  C   ALA d   1      65.758  87.912  93.329  0.00  0.00     0.010 A 
ATOM     17  C   ALA d   1      65.559  87.424  91.893  0.00  0.00     0.007 A 
ATOM     18  C   ALA d   1      64.044  87.267  92.020  0.00  0.00     0.040 A 
ATOM     19  O   ALA d   1      60.219  89.245  93.078  0.00  0.00    -0.265 OA
BRANCH  12  20
ATOM     20  C   ALA d   1      61.965  90.495  95.145  0.00  0.00     0.228 C 
ATOM     21  O   ALA d   1      61.369  90.244  96.236  0.00  0.00    -0.643 OA
ATOM     22  OXT ALA d   1      62.166  91.619  94.591  0.00  0.00    -0.643 OA
ENDBRANCH  12  20
ENDBRANCH   8  10
ENDBRANCH   7   8
BRANCH   6  23
ATOM     23  C   UNK d   0      59.579  84.683  90.443  0.00  0.00    -0.035 C 
BRANCH  23  24
ATOM     24  C   UNK d   0      58.482  84.069  89.564  0.00  0.00    -0.058 C 
BRANCH  24  25
ATOM     25  C   UNK d   0      57.436  83.519  88.769  0.00  0.00     0.042 A 
ATOM     26  C   UNK d   0      56.629  84.361  88.007  0.00  0.00     0.008 A 
ATOM     27  C   UNK d   0      55.594  83.827  87.243  0.00  0.00     0.001 A 
ATOM     28  C   UNK d   0      55.365  82.453  87.246  0.00  0.00     0.000 A 
ATOM     29  C   UNK d   0      56.171  81.613  88.008  0.00  0.00     0.001 A 
ATOM     30  C   UNK d   0      57.208  82.145  88.772  0.00  0.00     0.008 A 
ENDBRANCH  24  25
ENDBRANCH  23  24
ENDBRANCH   6  23
ENDBRANCH   4   6
ENDBRANCH   1   4
TORSDOF 8
ENDMDL
MODEL 12
REMARK VINA RESULT:      -5.8     17.505     21.770
REMARK  8 active torsions:
REMARK  status: ('A' for Active; 'I' for Inactive)
REMARK       I    between atoms: N_1  and  C_12 
REMARK    1  A    between atoms: CA_5  and  C_6 
REMARK    2  A    between atoms: C_12  and  CA_14 
REMARK    3  A    between atoms: CA_14  and  N_15 
REMARK    4  A    between atoms: C_16  and  C_17 
REMARK    5  A    between atoms: C_16  and  C_25 
REMARK    6  A    between atoms: C_17  and  C_18 
REMARK    7  A    between atoms: C_18  and  C_19 
REMARK    8  A    between atoms: C_25  and  O_27 
ROOT
ATOM      1  O   UNK d   0      62.705  84.229  96.599  0.00  0.00    -0.232 OA
ATOM      2  C   UNK d   0      63.492  83.283  97.091  0.00  0.00    -0.000 C 
ATOM      3  C   UNK d   0      64.318  82.123  97.680  0.00  0.00     0.110 C 
ENDROOT
BRANCH   1   4
ATOM      4  C   UNK d   0      63.282  85.454  96.478  0.00  0.00     0.333 C 
ATOM      5  O   UNK d   0      63.468  86.249  97.390  0.00  0.00    -0.256 OA
BRANCH   4   6
ATOM      6  C   UNK d   0      63.599  85.678  95.032  0.00  0.00     0.187 C 
ATOM      7  N   ALA d   1      62.623  85.736  94.100  0.00  0.00    -0.232 NA
BRANCH   7   8
ATOM      8  CA  ALA d   1      61.842  86.854  94.092  0.00  0.00     0.117 C 
ATOM      9  CB  ALA d   1      60.409  86.889  94.656  0.00  0.00     0.057 C 
BRANCH   8  10
ATOM     10  C   ALA d   1      62.529  88.182  93.779  0.00  0.00     0.278 C 
ATOM     11  N   ALA d   1      62.777  88.446  92.432  0.00  0.00    -0.276 N 
ATOM     12  CA  ALA d   1      63.386  89.614  91.931  0.00  0.00     0.127 A 
ATOM     13  C   ALA d   1      62.459  87.667  91.323  0.00  0.00     0.026 A 
ATOM     14  C   ALA d   1      63.372  89.566  90.511  0.00  0.00     0.003 A 
ATOM     15  C   ALA d   1      62.819  88.361  90.054  0.00  0.00     0.058 A 
ATOM     16  C   ALA d   1      61.724  88.101  89.177  0.00  0.00     0.010 A 
ATOM     17  C   ALA d   1      60.608  87.187  89.688  0.00  0.00     0.007 A 
ATOM     18  C   ALA d   1      61.235  86.979  91.066  0.00  0.00     0.040 A 
ATOM     19  O   ALA d   1      62.846  88.932  94.706  0.00  0.00    -0.265 OA
BRANCH  12  20
ATOM     20  C   ALA d   1      63.852  90.863  92.670  0.00  0.00     0.228 C 
ATOM     21  O   ALA d   1      65.069  90.849  93.030  0.00  0.00    -0.643 OA
ATOM     22  OXT ALA d   1      63.034  91.833  92.674  0.00  0.00    -0.643 OA
ENDBRANCH  12  20
ENDBRANCH   8  10
ENDBRANCH   7   8
BRANCH   6  23
ATOM     23  C   UNK d   0      64.943  85.692  94.559  0.00  0.00    -0.035 C 
BRANCH  23  24
ATOM     24  C   UNK d   0      66.370  85.690  93.995  0.00  0.00    -0.058 C 
BRANCH  24  25
ATOM     25  C   UNK d   0      67.696  85.649  93.478  0.00  0.00     0.042 A 
ATOM     26  C   UNK d   0      68.568  84.642  93.884  0.00  0.00     0.008 A 
ATOM     27  C   UNK d   0      69.871  84.611  93.393  0.00  0.00     0.001 A 
ATOM     28  C   UNK d   0      70.301  85.590  92.500  0.00  0.00     0.000 A 
ATOM     29  C   UNK d   0      69.429  86.596  92.095  0.00  0.00     0.001 A 
ATOM     30  C   UNK d   0      68.125  86.628  92.584  0.00  0.00     0.008 A 
ENDBRANCH  24  25
ENDBRANCH  23  24
ENDBRANCH   6  23
ENDBRANCH   4   6
ENDBRANCH   1   4
TORSDOF 8
ENDMDL
MODEL 13
REMARK VINA RESULT:      -5.8     11.112     13.606
REMARK  8 active torsions:
REMARK  status: ('A' for Active; 'I' for Inactive)
REMARK       I    between atoms: N_1  and  C_12 
REMARK    1  A    between atoms: CA_5  and  C_6 
REMARK    2  A    between atoms: C_12  and  CA_14 
REMARK    3  A    between atoms: CA_14  and  N_15 
REMARK    4  A    between atoms: C_16  and  C_17 
REMARK    5  A    between atoms: C_16  and  C_25 
REMARK    6  A    between atoms: C_17  and  C_18 
REMARK    7  A    between atoms: C_18  and  C_19 
REMARK    8  A    between atoms: C_25  and  O_27 
ROOT
ATOM      1  O   UNK d   0      78.660  77.992  97.923  0.00  0.00    -0.232 OA
ATOM      2  C   UNK d   0      79.536  77.259  98.596  0.00  0.00    -0.000 C 
ATOM      3  C   UNK d   0      80.504  76.318  99.340  0.00  0.00     0.110 C 
ENDROOT
BRANCH   1   4
ATOM      4  C   UNK d   0      78.606  79.301  98.285  0.00  0.00     0.333 C 
ATOM      5  O   UNK d   0      78.266  79.725  99.382  0.00  0.00    -0.256 OA
BRANCH   4   6
ATOM      6  C   UNK d   0      78.981  80.128  97.096  0.00  0.00     0.187 C 
ATOM      7  N   ALA d   1      78.041  80.702  96.314  0.00  0.00    -0.232 NA
BRANCH   7   8
ATOM      8  CA  ALA d   1      77.374  81.772  96.835  0.00  0.00     0.117 C 
ATOM      9  CB  ALA d   1      78.068  83.087  97.239  0.00  0.00     0.057 C 
BRANCH   8  10
ATOM     10  C   ALA d   1      75.850  81.761  96.733  0.00  0.00     0.278 C 
ATOM     11  N   ALA d   1      75.307  82.264  95.552  0.00  0.00    -0.276 N 
ATOM     12  CA  ALA d   1      73.931  82.330  95.253  0.00  0.00     0.127 A 
ATOM     13  C   ALA d   1      75.972  82.758  94.433  0.00  0.00     0.026 A 
ATOM     14  C   ALA d   1      73.773  82.804  93.922  0.00  0.00     0.003 A 
ATOM     15  C   ALA d   1      75.014  83.111  93.347  0.00  0.00     0.058 A 
ATOM     16  C   ALA d   1      75.637  82.646  92.151  0.00  0.00     0.010 A 
ATOM     17  C   ALA d   1      77.038  82.042  92.270  0.00  0.00     0.007 A 
ATOM     18  C   ALA d   1      77.118  82.203  93.787  0.00  0.00     0.040 A 
ATOM     19  O   ALA d   1      75.183  81.339  97.683  0.00  0.00    -0.265 OA
BRANCH  12  20
ATOM     20  C   ALA d   1      72.735  81.840  96.060  0.00  0.00     0.228 C 
ATOM     21  O   ALA d   1      72.036  82.756  96.592  0.00  0.00    -0.643 OA
ATOM     22  OXT ALA d   1      72.472  80.604  95.951  0.00  0.00    -0.643 OA
ENDBRANCH  12  20
ENDBRANCH   8  10
ENDBRANCH   7   8
BRANCH   6  23
ATOM     23  C   UNK d   0      80.332  80.223  96.652  0.00  0.00    -0.035 C 
BRANCH  23  24
ATOM     24  C   UNK d   0      81.803  80.295  96.223  0.00  0.00    -0.058 C 
BRANCH  24  25
ATOM     25  C   UNK d   0      83.173  80.323  95.835  0.00  0.00     0.042 A 
ATOM     26  C   UNK d   0      83.683  79.315  95.020  0.00  0.00     0.008 A 
ATOM     27  C   UNK d   0      85.027  79.332  94.654  0.00  0.00     0.001 A 
ATOM     28  C   UNK d   0      85.859  80.353  95.108  0.00  0.00     0.000 A 
ATOM     29  C   UNK d   0      85.348  81.359  95.922  0.00  0.00     0.001 A 
ATOM     30  C   UNK d   0      84.004  81.345  96.288  0.00  0.00     0.008 A 
ENDBRANCH  24  25
ENDBRANCH  23  24
ENDBRANCH   6  23
ENDBRANCH   4   6
ENDBRANCH   1   4
TORSDOF 8
ENDMDL
MODEL 14
REMARK VINA RESULT:      -5.6      4.271      9.454
REMARK  8 active torsions:
REMARK  status: ('A' for Active; 'I' for Inactive)
REMARK       I    between atoms: N_1  and  C_12 
REMARK    1  A    between atoms: CA_5  and  C_6 
REMARK    2  A    between atoms: C_12  and  CA_14 
REMARK    3  A    between atoms: CA_14  and  N_15 
REMARK    4  A    between atoms: C_16  and  C_17 
REMARK    5  A    between atoms: C_16  and  C_25 
REMARK    6  A    between atoms: C_17  and  C_18 
REMARK    7  A    between atoms: C_18  and  C_19 
REMARK    8  A    between atoms: C_25  and  O_27 
ROOT
ATOM      1  O   UNK d   0      80.259  64.410  93.824  0.00  0.00    -0.232 OA
ATOM      2  C   UNK d   0      81.104  64.689  94.806  0.00  0.00    -0.000 C 
ATOM      3  C   UNK d   0      82.137  64.918  95.927  0.00  0.00     0.110 C 
ENDROOT
BRANCH   1   4
ATOM      4  C   UNK d   0      79.133  65.170  93.800  0.00  0.00     0.333 C 
ATOM      5  O   UNK d   0      78.558  65.626  94.780  0.00  0.00    -0.256 OA
BRANCH   4   6
ATOM      6  C   UNK d   0      78.692  65.303  92.376  0.00  0.00     0.187 C 
ATOM      7  N   ALA d   1      77.684  66.131  92.027  0.00  0.00    -0.232 NA
BRANCH   7   8
ATOM      8  CA  ALA d   1      77.944  67.470  92.060  0.00  0.00     0.117 C 
ATOM      9  CB  ALA d   1      79.367  68.053  92.156  0.00  0.00     0.057 C 
BRANCH   8  10
ATOM     10  C   ALA d   1      76.799  68.412  91.693  0.00  0.00     0.278 C 
ATOM     11  N   ALA d   1      76.753  68.837  90.366  0.00  0.00    -0.276 N 
ATOM     12  CA  ALA d   1      75.774  69.692  89.820  0.00  0.00     0.127 A 
ATOM     13  C   ALA d   1      77.602  68.497  89.316  0.00  0.00     0.026 A 
ATOM     14  C   ALA d   1      75.999  69.813  88.422  0.00  0.00     0.003 A 
ATOM     15  C   ALA d   1      77.142  69.101  88.032  0.00  0.00     0.058 A 
ATOM     16  C   ALA d   1      77.325  68.071  87.063  0.00  0.00     0.010 A 
ATOM     17  C   ALA d   1      77.969  66.764  87.530  0.00  0.00     0.007 A 
ATOM     18  C   ALA d   1      78.103  67.202  88.988  0.00  0.00     0.040 A 
ATOM     19  O   ALA d   1      76.001  68.763  92.566  0.00  0.00    -0.265 OA
BRANCH  12  20
ATOM     20  C   ALA d   1      74.538  70.298  90.472  0.00  0.00     0.228 C 
ATOM     21  O   ALA d   1      74.756  71.328  91.182  0.00  0.00    -0.643 OA
ATOM     22  OXT ALA d   1      73.427  69.824  90.084  0.00  0.00    -0.643 OA
ENDBRANCH  12  20
ENDBRANCH   8  10
ENDBRANCH   7   8
BRANCH   6  23
ATOM     23  C   UNK d   0      79.214  64.458  91.354  0.00  0.00    -0.035 C 
BRANCH  23  24
ATOM     24  C   UNK d   0      79.738  63.573  90.216  0.00  0.00    -0.058 C 
BRANCH  24  25
ATOM     25  C   UNK d   0      80.261  62.754  89.174  0.00  0.00     0.042 A 
ATOM     26  C   UNK d   0      79.397  62.181  88.243  0.00  0.00     0.008 A 
ATOM     27  C   UNK d   0      79.905  61.365  87.235  0.00  0.00     0.001 A 
ATOM     28  C   UNK d   0      81.274  61.121  87.161  0.00  0.00     0.000 A 
ATOM     29  C   UNK d   0      82.136  61.694  88.092  0.00  0.00     0.001 A 
ATOM     30  C   UNK d   0      81.630  62.511  89.101  0.00  0.00     0.008 A 
ENDBRANCH  24  25
ENDBRANCH  23  24
ENDBRANCH   6  23
ENDBRANCH   4   6
ENDBRANCH   1   4
TORSDOF 8
ENDMDL
MODEL 15
REMARK VINA RESULT:      -5.6     12.821     14.877
REMARK  8 active torsions:
REMARK  status: ('A' for Active; 'I' for Inactive)
REMARK       I    between atoms: N_1  and  C_12 
REMARK    1  A    between atoms: CA_5  and  C_6 
REMARK    2  A    between atoms: C_12  and  CA_14 
REMARK    3  A    between atoms: CA_14  and  N_15 
REMARK    4  A    between atoms: C_16  and  C_17 
REMARK    5  A    between atoms: C_16  and  C_25 
REMARK    6  A    between atoms: C_17  and  C_18 
REMARK    7  A    between atoms: C_18  and  C_19 
REMARK    8  A    between atoms: C_25  and  O_27 
ROOT
ATOM      1  O   UNK d   0      67.186  71.975 102.299  0.00  0.00    -0.232 OA
ATOM      2  C   UNK d   0      66.083  72.047 103.031  0.00  0.00    -0.000 C 
ATOM      3  C   UNK d   0      64.854  72.197 103.949  0.00  0.00     0.110 C 
ENDROOT
BRANCH   1   4
ATOM      4  C   UNK d   0      67.213  70.960 101.396  0.00  0.00     0.333 C 
ATOM      5  O   UNK d   0      66.634  69.888 101.509  0.00  0.00    -0.256 OA
BRANCH   4   6
ATOM      6  C   UNK d   0      68.115  71.362 100.271  0.00  0.00     0.187 C 
ATOM      7  N   ALA d   1      67.659  71.453  99.003  0.00  0.00    -0.232 NA
BRANCH   7   8
ATOM      8  CA  ALA d   1      66.844  72.507  98.712  0.00  0.00     0.117 C 
ATOM      9  CB  ALA d   1      66.952  73.877  99.410  0.00  0.00     0.057 C 
BRANCH   8  10
ATOM     10  C   ALA d   1      65.996  72.404  97.446  0.00  0.00     0.278 C 
ATOM     11  N   ALA d   1      64.730  71.840  97.596  0.00  0.00    -0.276 N 
ATOM     12  CA  ALA d   1      63.789  71.667  96.561  0.00  0.00     0.127 A 
ATOM     13  C   ALA d   1      64.119  71.376  98.758  0.00  0.00     0.026 A 
ATOM     14  C   ALA d   1      62.584  71.158  97.116  0.00  0.00     0.003 A 
ATOM     15  C   ALA d   1      62.721  70.933  98.494  0.00  0.00     0.058 A 
ATOM     16  C   ALA d   1      61.972  71.420  99.606  0.00  0.00     0.010 A 
ATOM     17  C   ALA d   1      62.741  72.128 100.723  0.00  0.00     0.007 A 
ATOM     18  C   ALA d   1      64.102  72.001 100.041  0.00  0.00     0.040 A 
ATOM     19  O   ALA d   1      66.464  72.793  96.372  0.00  0.00    -0.265 OA
BRANCH  12  20
ATOM     20  C   ALA d   1      63.865  72.082  95.097  0.00  0.00     0.228 C 
ATOM     21  O   ALA d   1      63.497  73.273  94.858  0.00  0.00    -0.643 OA
ATOM     22  OXT ALA d   1      64.458  71.266  94.328  0.00  0.00    -0.643 OA
ENDBRANCH  12  20
ENDBRANCH   8  10
ENDBRANCH   7   8
BRANCH   6  23
ATOM     23  C   UNK d   0      69.518  71.523 100.464  0.00  0.00    -0.035 C 
BRANCH  23  24
ATOM     24  C   UNK d   0      71.036  71.674 100.617  0.00  0.00    -0.058 C 
BRANCH  24  25
ATOM     25  C   UNK d   0      72.444  71.851 100.742  0.00  0.00     0.042 A 
ATOM     26  C   UNK d   0      73.238  70.799 101.193  0.00  0.00     0.008 A 
ATOM     27  C   UNK d   0      74.612  70.976 101.334  0.00  0.00     0.001 A 
ATOM     28  C   UNK d   0      75.190  72.205 101.028  0.00  0.00     0.000 A 
ATOM     29  C   UNK d   0      74.396  73.257 100.577  0.00  0.00     0.001 A 
ATOM     30  C   UNK d   0      73.021  73.081 100.435  0.00  0.00     0.008 A 
ENDBRANCH  24  25
ENDBRANCH  23  24
ENDBRANCH   6  23
ENDBRANCH   4   6
ENDBRANCH   1   4
TORSDOF 8
ENDMDL
MODEL 16
REMARK VINA RESULT:      -5.6     23.293     25.058
REMARK  8 active torsions:
REMARK  status: ('A' for Active; 'I' for Inactive)
REMARK       I    between atoms: N_1  and  C_12 
REMARK    1  A    between atoms: CA_5  and  C_6 
REMARK    2  A    between atoms: C_12  and  CA_14 
REMARK    3  A    between atoms: CA_14  and  N_15 
REMARK    4  A    between atoms: C_16  and  C_17 
REMARK    5  A    between atoms: C_16  and  C_25 
REMARK    6  A    between atoms: C_17  and  C_18 
REMARK    7  A    between atoms: C_18  and  C_19 
REMARK    8  A    between atoms: C_25  and  O_27 
ROOT
ATOM      1  O   UNK d   0      57.471  85.899  95.324  0.00  0.00    -0.232 OA
ATOM      2  C   UNK d   0      56.652  84.857  95.341  0.00  0.00    -0.000 C 
ATOM      3  C   UNK d   0      55.783  83.586  95.399  0.00  0.00     0.110 C 
ENDROOT
BRANCH   1   4
ATOM      4  C   UNK d   0      57.039  86.960  94.593  0.00  0.00     0.333 C 
ATOM      5  O   UNK d   0      56.096  87.686  94.878  0.00  0.00    -0.256 OA
BRANCH   4   6
ATOM      6  C   UNK d   0      57.881  87.048  93.359  0.00  0.00     0.187 C 
ATOM      7  N   ALA d   1      58.876  87.954  93.250  0.00  0.00    -0.232 NA
BRANCH   7   8
ATOM      8  CA  ALA d   1      60.001  87.727  93.988  0.00  0.00     0.117 C 
ATOM      9  CB  ALA d   1      60.528  86.317  94.316  0.00  0.00     0.057 C 
BRANCH   8  10
ATOM     10  C   ALA d   1      60.921  88.920  94.241  0.00  0.00     0.278 C 
ATOM     11  N   ALA d   1      61.948  89.113  93.318  0.00  0.00    -0.276 N 
ATOM     12  CA  ALA d   1      62.893  90.158  93.361  0.00  0.00     0.127 A 
ATOM     13  C   ALA d   1      62.237  88.374  92.174  0.00  0.00     0.026 A 
ATOM     14  C   ALA d   1      63.711  90.084  92.201  0.00  0.00     0.003 A 
ATOM     15  C   ALA d   1      63.369  88.976  91.413  0.00  0.00     0.058 A 
ATOM     16  C   ALA d   1      62.976  88.879  90.045  0.00  0.00     0.010 A 
ATOM     17  C   ALA d   1      61.658  88.167  89.735  0.00  0.00     0.007 A 
ATOM     18  C   ALA d   1      61.316  87.888  91.198  0.00  0.00     0.040 A 
ATOM     19  O   ALA d   1      60.734  89.627  95.235  0.00  0.00    -0.265 OA
BRANCH  12  20
ATOM     20  C   ALA d   1      63.007  91.329  94.329  0.00  0.00     0.228 C 
ATOM     21  O   ALA d   1      62.081  92.192  94.237  0.00  0.00    -0.643 OA
ATOM     22  OXT ALA d   1      63.894  91.210  95.228  0.00  0.00    -0.643 OA
ENDBRANCH  12  20
ENDBRANCH   8  10
ENDBRANCH   7   8
BRANCH   6  23
ATOM     23  C   UNK d   0      57.575  86.285  92.194  0.00  0.00    -0.035 C 
BRANCH  23  24
ATOM     24  C   UNK d   0      57.304  85.461  90.929  0.00  0.00    -0.058 C 
BRANCH  24  25
ATOM     25  C   UNK d   0      57.013  84.699  89.761  0.00  0.00     0.042 A 
ATOM     26  C   UNK d   0      56.729  83.340  89.873  0.00  0.00     0.008 A 
ATOM     27  C   UNK d   0      56.462  82.589  88.731  0.00  0.00     0.001 A 
ATOM     28  C   UNK d   0      56.485  83.198  87.478  0.00  0.00     0.000 A 
ATOM     29  C   UNK d   0      56.769  84.556  87.367  0.00  0.00     0.001 A 
ATOM     30  C   UNK d   0      57.035  85.309  88.510  0.00  0.00     0.008 A 
ENDBRANCH  24  25
ENDBRANCH  23  24
ENDBRANCH   6  23
ENDBRANCH   4   6
ENDBRANCH   1   4
TORSDOF 8
ENDMDL
MODEL 17
REMARK VINA RESULT:      -5.4     21.319     25.538
REMARK  8 active torsions:
REMARK  status: ('A' for Active; 'I' for Inactive)
REMARK       I    between atoms: N_1  and  C_12 
REMARK    1  A    between atoms: CA_5  and  C_6 
REMARK    2  A    between atoms: C_12  and  CA_14 
REMARK    3  A    between atoms: CA_14  and  N_15 
REMARK    4  A    between atoms: C_16  and  C_17 
REMARK    5  A    between atoms: C_16  and  C_25 
REMARK    6  A    between atoms: C_17  and  C_18 
REMARK    7  A    between atoms: C_18  and  C_19 
REMARK    8  A    between atoms: C_25  and  O_27 
ROOT
ATOM      1  O   UNK d   0      58.206  81.398  89.421  0.00  0.00    -0.232 OA
ATOM      2  C   UNK d   0      58.366  80.847  90.615  0.00  0.00    -0.000 C 
ATOM      3  C   UNK d   0      58.653  80.176  91.973  0.00  0.00     0.110 C 
ENDROOT
BRANCH   1   4
ATOM      4  C   UNK d   0      56.921  81.692  89.089  0.00  0.00     0.333 C 
ATOM      5  O   UNK d   0      55.950  80.975  89.291  0.00  0.00    -0.256 OA
BRANCH   4   6
ATOM      6  C   UNK d   0      56.912  83.015  88.390  0.00  0.00     0.187 C 
ATOM      7  N   ALA d   1      56.210  83.204  87.252  0.00  0.00    -0.232 NA
BRANCH   7   8
ATOM      8  CA  ALA d   1      54.853  83.268  87.367  0.00  0.00     0.117 C 
ATOM      9  CB  ALA d   1      53.894  82.334  86.602  0.00  0.00     0.057 C 
BRANCH   8  10
ATOM     10  C   ALA d   1      54.288  84.099  88.518  0.00  0.00     0.278 C 
ATOM     11  N   ALA d   1      54.432  85.481  88.408  0.00  0.00    -0.276 N 
ATOM     12  CA  ALA d   1      53.971  86.424  89.350  0.00  0.00     0.127 A 
ATOM     13  C   ALA d   1      55.004  86.214  87.372  0.00  0.00     0.026 A 
ATOM     14  C   ALA d   1      54.207  87.730  88.844  0.00  0.00     0.003 A 
ATOM     15  C   ALA d   1      54.870  87.680  87.610  0.00  0.00     0.058 A 
ATOM     16  C   ALA d   1      54.528  88.223  86.335  0.00  0.00     0.010 A 
ATOM     17  C   ALA d   1      54.479  87.262  85.145  0.00  0.00     0.007 A 
ATOM     18  C   ALA d   1      54.825  86.022  85.969  0.00  0.00     0.040 A 
ATOM     19  O   ALA d   1      53.765  83.526  89.478  0.00  0.00    -0.265 OA
BRANCH  12  20
ATOM     20  C   ALA d   1      53.180  86.209  90.634  0.00  0.00     0.228 C 
ATOM     21  O   ALA d   1      51.927  86.083  90.477  0.00  0.00    -0.643 OA
ATOM     22  OXT ALA d   1      53.874  85.996  91.674  0.00  0.00    -0.643 OA
ENDBRANCH  12  20
ENDBRANCH   8  10
ENDBRANCH   7   8
BRANCH   6  23
ATOM     23  C   UNK d   0      57.757  84.083  88.810  0.00  0.00    -0.035 C 
BRANCH  23  24
ATOM     24  C   UNK d   0      58.706  85.193  89.281  0.00  0.00    -0.058 C 
BRANCH  24  25
ATOM     25  C   UNK d   0      59.596  86.231  89.679  0.00  0.00     0.042 A 
ATOM     26  C   UNK d   0      60.595  86.660  88.808  0.00  0.00     0.008 A 
ATOM     27  C   UNK d   0      61.478  87.663  89.203  0.00  0.00     0.001 A 
ATOM     28  C   UNK d   0      61.362  88.232  90.469  0.00  0.00     0.000 A 
ATOM     29  C   UNK d   0      60.363  87.803  91.339  0.00  0.00     0.001 A 
ATOM     30  C   UNK d   0      59.479  86.800  90.945  0.00  0.00     0.008 A 
ENDBRANCH  24  25
ENDBRANCH  23  24
ENDBRANCH   6  23
ENDBRANCH   4   6
ENDBRANCH   1   4
TORSDOF 8
ENDMDL
MODEL 18
REMARK VINA RESULT:      -5.3      8.774     12.333
REMARK  8 active torsions:
REMARK  status: ('A' for Active; 'I' for Inactive)
REMARK       I    between atoms: N_1  and  C_12 
REMARK    1  A    between atoms: CA_5  and  C_6 
REMARK    2  A    between atoms: C_12  and  CA_14 
REMARK    3  A    between atoms: CA_14  and  N_15 
REMARK    4  A    between atoms: C_16  and  C_17 
REMARK    5  A    between atoms: C_16  and  C_25 
REMARK    6  A    between atoms: C_17  and  C_18 
REMARK    7  A    between atoms: C_18  and  C_19 
REMARK    8  A    between atoms: C_25  and  O_27 
ROOT
ATOM      1  O   UNK d   0      76.894  80.816  96.926  0.00  0.00    -0.232 OA
ATOM      2  C   UNK d   0      75.655  81.217  97.168  0.00  0.00    -0.000 C 
ATOM      3  C   UNK d   0      74.191  81.582  97.480  0.00  0.00     0.110 C 
ENDROOT
BRANCH   1   4
ATOM      4  C   UNK d   0      77.641  81.669  96.176  0.00  0.00     0.333 C 
ATOM      5  O   UNK d   0      77.506  82.885  96.132  0.00  0.00    -0.256 OA
BRANCH   4   6
ATOM      6  C   UNK d   0      78.614  80.859  95.379  0.00  0.00     0.187 C 
ATOM      7  N   ALA d   1      79.938  81.122  95.408  0.00  0.00    -0.232 NA
BRANCH   7   8
ATOM      8  CA  ALA d   1      80.610  80.789  96.547  0.00  0.00     0.117 C 
ATOM      9  CB  ALA d   1      79.985  79.960  97.686  0.00  0.00     0.057 C 
BRANCH   8  10
ATOM     10  C   ALA d   1      82.123  80.998  96.550  0.00  0.00     0.278 C 
ATOM     11  N   ALA d   1      82.898  79.905  96.163  0.00  0.00    -0.276 N 
ATOM     12  CA  ALA d   1      84.305  79.893  96.085  0.00  0.00     0.127 A 
ATOM     13  C   ALA d   1      82.474  78.646  95.747  0.00  0.00     0.026 A 
ATOM     14  C   ALA d   1      84.724  78.642  95.556  0.00  0.00     0.003 A 
ATOM     15  C   ALA d   1      83.628  77.797  95.333  0.00  0.00     0.058 A 
ATOM     16  C   ALA d   1      83.179  77.127  94.157  0.00  0.00     0.010 A 
ATOM     17  C   ALA d   1      81.733  77.362  93.714  0.00  0.00     0.007 A 
ATOM     18  C   ALA d   1      81.412  78.340  94.844  0.00  0.00     0.040 A 
ATOM     19  O   ALA d   1      82.582  82.087  96.907  0.00  0.00    -0.265 OA
BRANCH  12  20
ATOM     20  C   ALA d   1      85.303  81.019  96.323  0.00  0.00     0.228 C 
ATOM     21  O   ALA d   1      85.503  81.309  97.543  0.00  0.00    -0.643 OA
ATOM     22  OXT ALA d   1      85.949  81.403  95.301  0.00  0.00    -0.643 OA
ENDBRANCH  12  20
ENDBRANCH   8  10
ENDBRANCH   7   8
BRANCH   6  23
ATOM     23  C   UNK d   0      78.174  79.875  94.446  0.00  0.00    -0.035 C 
BRANCH  23  24
ATOM     24  C   UNK d   0      77.643  78.828  93.459  0.00  0.00    -0.058 C 
BRANCH  24  25
ATOM     25  C   UNK d   0      77.151  77.828  92.571  0.00  0.00     0.042 A 
ATOM     26  C   UNK d   0      78.031  76.905  92.011  0.00  0.00     0.008 A 
ATOM     27  C   UNK d   0      77.554  75.938  91.128  0.00  0.00     0.001 A 
ATOM     28  C   UNK d   0      76.200  75.898  90.805  0.00  0.00     0.000 A 
ATOM     29  C   UNK d   0      75.321  76.821  91.366  0.00  0.00     0.001 A 
ATOM     30  C   UNK d   0      75.797  77.789  92.250  0.00  0.00     0.008 A 
ENDBRANCH  24  25
ENDBRANCH  23  24
ENDBRANCH   6  23
ENDBRANCH   4   6
ENDBRANCH   1   4
TORSDOF 8
ENDMDL
MODEL 19
REMARK VINA RESULT:      -5.3      8.358     11.761
REMARK  8 active torsions:
REMARK  status: ('A' for Active; 'I' for Inactive)
REMARK       I    between atoms: N_1  and  C_12 
REMARK    1  A    between atoms: CA_5  and  C_6 
REMARK    2  A    between atoms: C_12  and  CA_14 
REMARK    3  A    between atoms: CA_14  and  N_15 
REMARK    4  A    between atoms: C_16  and  C_17 
REMARK    5  A    between atoms: C_16  and  C_25 
REMARK    6  A    between atoms: C_17  and  C_18 
REMARK    7  A    between atoms: C_18  and  C_19 
REMARK    8  A    between atoms: C_25  and  O_27 
ROOT
ATOM      1  O   UNK d   0      79.099  77.674  94.823  0.00  0.00    -0.232 OA
ATOM      2  C   UNK d   0      79.963  76.725  94.496  0.00  0.00    -0.000 C 
ATOM      3  C   UNK d   0      81.004  75.621  94.220  0.00  0.00     0.110 C 
ENDROOT
BRANCH   1   4
ATOM      4  C   UNK d   0      78.538  78.329  93.772  0.00  0.00     0.333 C 
ATOM      5  O   UNK d   0      77.828  77.824  92.913  0.00  0.00    -0.256 OA
BRANCH   4   6
ATOM      6  C   UNK d   0      78.984  79.757  93.822  0.00  0.00     0.187 C 
ATOM      7  N   ALA d   1      78.206  80.754  93.351  0.00  0.00    -0.232 NA
BRANCH   7   8
ATOM      8  CA  ALA d   1      77.107  81.083  94.090  0.00  0.00     0.117 C 
ATOM      9  CB  ALA d   1      77.139  81.257  95.620  0.00  0.00     0.057 C 
BRANCH   8  10
ATOM     10  C   ALA d   1      75.879  81.580  93.330  0.00  0.00     0.278 C 
ATOM     11  N   ALA d   1      74.834  80.669  93.184  0.00  0.00    -0.276 N 
ATOM     12  CA  ALA d   1      73.612  80.932  92.532  0.00  0.00     0.127 A 
ATOM     13  C   ALA d   1      74.747  79.365  93.662  0.00  0.00     0.026 A 
ATOM     14  C   ALA d   1      72.763  79.802  92.677  0.00  0.00     0.003 A 
ATOM     15  C   ALA d   1      73.414  78.767  93.363  0.00  0.00     0.058 A 
ATOM     16  C   ALA d   1      73.063  78.058  94.550  0.00  0.00     0.010 A 
ATOM     17  C   ALA d   1      74.089  78.022  95.685  0.00  0.00     0.007 A 
ATOM     18  C   ALA d   1      75.116  78.886  94.955  0.00  0.00     0.040 A 
ATOM     19  O   ALA d   1      75.875  82.727  92.872  0.00  0.00    -0.265 OA
BRANCH  12  20
ATOM     20  C   ALA d   1      73.102  82.223  91.903  0.00  0.00     0.228 C 
ATOM     21  O   ALA d   1      72.573  83.042  92.715  0.00  0.00    -0.643 OA
ATOM     22  OXT ALA d   1      73.431  82.407  90.691  0.00  0.00    -0.643 OA
ENDBRANCH  12  20
ENDBRANCH   8  10
ENDBRANCH   7   8
BRANCH   6  23
ATOM     23  C   UNK d   0      80.304  80.109  94.231  0.00  0.00    -0.035 C 
BRANCH  23  24
ATOM     24  C   UNK d   0      81.744  80.439  94.644  0.00  0.00    -0.058 C 
BRANCH  24  25
ATOM     25  C   UNK d   0      83.085  80.708  95.042  0.00  0.00     0.042 A 
ATOM     26  C   UNK d   0      84.144  80.173  94.312  0.00  0.00     0.008 A 
ATOM     27  C   UNK d   0      85.456  80.420  94.710  0.00  0.00     0.001 A 
ATOM     28  C   UNK d   0      85.706  81.198  95.839  0.00  0.00     0.000 A 
ATOM     29  C   UNK d   0      84.647  81.732  96.567  0.00  0.00     0.001 A 
ATOM     30  C   UNK d   0      83.334  81.486  96.170  0.00  0.00     0.008 A 
ENDBRANCH  24  25
ENDBRANCH  23  24
ENDBRANCH   6  23
ENDBRANCH   4   6
ENDBRANCH   1   4
TORSDOF 8
ENDMDL
MODEL 20
REMARK VINA RESULT:      -5.3     17.526     22.143
REMARK  8 active torsions:
REMARK  status: ('A' for Active; 'I' for Inactive)
REMARK       I    between atoms: N_1  and  C_12 
REMARK    1  A    between atoms: CA_5  and  C_6 
REMARK    2  A    between atoms: C_12  and  CA_14 
REMARK    3  A    between atoms: CA_14  and  N_15 
REMARK    4  A    between atoms: C_16  and  C_17 
REMARK    5  A    between atoms: C_16  and  C_25 
REMARK    6  A    between atoms: C_17  and  C_18 
REMARK    7  A    between atoms: C_18  and  C_19 
REMARK    8  A    between atoms: C_25  and  O_27 
ROOT
ATOM      1  O   UNK d   0      62.957  85.536  97.041  0.00  0.00    -0.232 OA
ATOM      2  C   UNK d   0      61.942  85.814  97.846  0.00  0.00    -0.000 C 
ATOM      3  C   UNK d   0      60.834  86.169  98.857  0.00  0.00     0.110 C 
ENDROOT
BRANCH   1   4
ATOM      4  C   UNK d   0      62.646  84.761  95.968  0.00  0.00     0.333 C 
ATOM      5  O   UNK d   0      62.126  83.654  96.014  0.00  0.00    -0.256 OA
BRANCH   4   6
ATOM      6  C   UNK d   0      63.100  85.473  94.733  0.00  0.00     0.187 C 
ATOM      7  N   ALA d   1      62.216  86.047  93.887  0.00  0.00    -0.232 NA
BRANCH   7   8
ATOM      8  CA  ALA d   1      61.609  87.192  94.312  0.00  0.00     0.117 C 
ATOM      9  CB  ALA d   1      60.088  87.312  94.529  0.00  0.00     0.057 C 
BRANCH   8  10
ATOM     10  C   ALA d   1      62.509  88.294  94.868  0.00  0.00     0.278 C 
ATOM     11  N   ALA d   1      63.451  88.823  93.988  0.00  0.00    -0.276 N 
ATOM     12  CA  ALA d   1      64.364  89.852  94.297  0.00  0.00     0.127 A 
ATOM     13  C   ALA d   1      63.669  88.498  92.652  0.00  0.00     0.026 A 
ATOM     14  C   ALA d   1      65.087  90.192  93.122  0.00  0.00     0.003 A 
ATOM     15  C   ALA d   1      64.716  89.370  92.048  0.00  0.00     0.058 A 
ATOM     16  C   ALA d   1      64.217  89.687  90.749  0.00  0.00     0.010 A 
ATOM     17  C   ALA d   1      62.901  89.038  90.318  0.00  0.00     0.007 A 
ATOM     18  C   ALA d   1      62.688  88.294  91.636  0.00  0.00     0.040 A 
ATOM     19  O   ALA d   1      62.381  88.641  96.046  0.00  0.00    -0.265 OA
BRANCH  12  20
ATOM     20  C   ALA d   1      64.520  90.663  95.578  0.00  0.00     0.228 C 
ATOM     21  O   ALA d   1      63.718  91.641  95.693  0.00  0.00    -0.643 OA
ATOM     22  OXT ALA d   1      65.291  90.163  96.451  0.00  0.00    -0.643 OA
ENDBRANCH  12  20
ENDBRANCH   8  10
ENDBRANCH   7   8
BRANCH   6  23
ATOM     23  C   UNK d   0      64.464  85.450  94.319  0.00  0.00    -0.035 C 
BRANCH  23  24
ATOM     24  C   UNK d   0      65.934  85.484  93.885  0.00  0.00    -0.058 C 
BRANCH  24  25
ATOM     25  C   UNK d   0      67.301  85.475  93.481  0.00  0.00     0.042 A 
ATOM     26  C   UNK d   0      67.790  86.496  92.669  0.00  0.00     0.008 A 
ATOM     27  C   UNK d   0      69.120  86.479  92.258  0.00  0.00     0.001 A 
ATOM     28  C   UNK d   0      69.959  85.440  92.657  0.00  0.00     0.000 A 
ATOM     29  C   UNK d   0      69.469  84.421  93.468  0.00  0.00     0.001 A 
ATOM     30  C   UNK d   0      68.138  84.436  93.881  0.00  0.00     0.008 A 
ENDBRANCH  24  25
ENDBRANCH  23  24
ENDBRANCH   6  23
ENDBRANCH   4   6
ENDBRANCH   1   4
TORSDOF 8
ENDMDL
