MODEL 1
REMARK VINA RESULT:      -1.3      0.000      0.000
REMARK  8 active torsions:
REMARK  status: ('A' for Active; 'I' for Inactive)
REMARK    1  A    between atoms: C_4  and  S_6 
REMARK    2  A    between atoms: S_6  and  C_8 
REMARK    3  A    between atoms: C_8  and  C_9 
REMARK    4  A    between atoms: C_11  and  O_15 
REMARK    5  A    between atoms: O_15  and  C_16 
REMARK    6  A    between atoms: C_16  and  C_17 
REMARK    7  A    between atoms: C_17  and  C_18 
REMARK    8  A    between atoms: C_18  and  O_19 
ROOT
ATOM      1 NA   UNL d   2      69.550  64.477  88.011  0.00  0.00     0.000 Na
ENDROOT
TORSDOF 8
ENDMDL
MODEL 2
REMARK VINA RESULT:      -1.2     28.518     28.518
REMARK  8 active torsions:
REMARK  status: ('A' for Active; 'I' for Inactive)
REMARK    1  A    between atoms: C_4  and  S_6 
REMARK    2  A    between atoms: S_6  and  C_8 
REMARK    3  A    between atoms: C_8  and  C_9 
REMARK    4  A    between atoms: C_11  and  O_15 
REMARK    5  A    between atoms: O_15  and  C_16 
REMARK    6  A    between atoms: C_16  and  C_17 
REMARK    7  A    between atoms: C_17  and  C_18 
REMARK    8  A    between atoms: C_18  and  O_19 
ROOT
ATOM      1 NA   UNL d   2      79.756  90.280  94.592  0.00  0.00     0.000 Na
ENDROOT
TORSDOF 8
ENDMDL
MODEL 3
REMARK VINA RESULT:      -1.2     19.835     19.835
REMARK  8 active torsions:
REMARK  status: ('A' for Active; 'I' for Inactive)
REMARK    1  A    between atoms: C_4  and  S_6 
REMARK    2  A    between atoms: S_6  and  C_8 
REMARK    3  A    between atoms: C_8  and  C_9 
REMARK    4  A    between atoms: C_11  and  O_15 
REMARK    5  A    between atoms: O_15  and  C_16 
REMARK    6  A    between atoms: C_16  and  C_17 
REMARK    7  A    between atoms: C_17  and  C_18 
REMARK    8  A    between atoms: C_18  and  O_19 
ROOT
ATOM      1 NA   UNL d   2      65.878  80.051  76.289  0.00  0.00     0.000 Na
ENDROOT
TORSDOF 8
ENDMDL
MODEL 4
REMARK VINA RESULT:      -1.2      8.733      8.733
REMARK  8 active torsions:
REMARK  status: ('A' for Active; 'I' for Inactive)
REMARK    1  A    between atoms: C_4  and  S_6 
REMARK    2  A    between atoms: S_6  and  C_8 
REMARK    3  A    between atoms: C_8  and  C_9 
REMARK    4  A    between atoms: C_11  and  O_15 
REMARK    5  A    between atoms: O_15  and  C_16 
REMARK    6  A    between atoms: C_16  and  C_17 
REMARK    7  A    between atoms: C_17  and  C_18 
REMARK    8  A    between atoms: C_18  and  O_19 
ROOT
ATOM      1 NA   UNL d   2      66.580  60.186  81.009  0.00  0.00     0.000 Na
ENDROOT
TORSDOF 8
ENDMDL
MODEL 5
REMARK VINA RESULT:      -1.1      4.327      4.327
REMARK  8 active torsions:
REMARK  status: ('A' for Active; 'I' for Inactive)
REMARK    1  A    between atoms: C_4  and  S_6 
REMARK    2  A    between atoms: S_6  and  C_8 
REMARK    3  A    between atoms: C_8  and  C_9 
REMARK    4  A    between atoms: C_11  and  O_15 
REMARK    5  A    between atoms: O_15  and  C_16 
REMARK    6  A    between atoms: C_16  and  C_17 
REMARK    7  A    between atoms: C_17  and  C_18 
REMARK    8  A    between atoms: C_18  and  O_19 
ROOT
ATOM      1 NA   UNL d   2      69.978  60.443  86.507  0.00  0.00     0.000 Na
ENDROOT
TORSDOF 8
ENDMDL
MODEL 6
REMARK VINA RESULT:      -1.1      2.310      2.310
REMARK  8 active torsions:
REMARK  status: ('A' for Active; 'I' for Inactive)
REMARK    1  A    between atoms: C_4  and  S_6 
REMARK    2  A    between atoms: S_6  and  C_8 
REMARK    3  A    between atoms: C_8  and  C_9 
REMARK    4  A    between atoms: C_11  and  O_15 
REMARK    5  A    between atoms: O_15  and  C_16 
REMARK    6  A    between atoms: C_16  and  C_17 
REMARK    7  A    between atoms: C_17  and  C_18 
REMARK    8  A    between atoms: C_18  and  O_19 
ROOT
ATOM      1 NA   UNL d   2      67.631  65.088  89.144  0.00  0.00     0.000 Na
ENDROOT
TORSDOF 8
ENDMDL
MODEL 7
REMARK VINA RESULT:      -1.1     19.074     19.074
REMARK  8 active torsions:
REMARK  status: ('A' for Active; 'I' for Inactive)
REMARK    1  A    between atoms: C_4  and  S_6 
REMARK    2  A    between atoms: S_6  and  C_8 
REMARK    3  A    between atoms: C_8  and  C_9 
REMARK    4  A    between atoms: C_11  and  O_15 
REMARK    5  A    between atoms: O_15  and  C_16 
REMARK    6  A    between atoms: C_16  and  C_17 
REMARK    7  A    between atoms: C_17  and  C_18 
REMARK    8  A    between atoms: C_18  and  O_19 
ROOT
ATOM      1 NA   UNL d   2      55.087  76.897  88.637  0.00  0.00     0.000 Na
ENDROOT
TORSDOF 8
ENDMDL
MODEL 8
REMARK VINA RESULT:      -1.1     11.634     11.634
REMARK  8 active torsions:
REMARK  status: ('A' for Active; 'I' for Inactive)
REMARK    1  A    between atoms: C_4  and  S_6 
REMARK    2  A    between atoms: S_6  and  C_8 
REMARK    3  A    between atoms: C_8  and  C_9 
REMARK    4  A    between atoms: C_11  and  O_15 
REMARK    5  A    between atoms: O_15  and  C_16 
REMARK    6  A    between atoms: C_16  and  C_17 
REMARK    7  A    between atoms: C_17  and  C_18 
REMARK    8  A    between atoms: C_18  and  O_19 
ROOT
ATOM      1 NA   UNL d   2      63.405  61.695  97.490  0.00  0.00     0.000 Na
ENDROOT
TORSDOF 8
ENDMDL
MODEL 9
REMARK VINA RESULT:      -1.0     26.430     26.430
REMARK  8 active torsions:
REMARK  status: ('A' for Active; 'I' for Inactive)
REMARK    1  A    between atoms: C_4  and  S_6 
REMARK    2  A    between atoms: S_6  and  C_8 
REMARK    3  A    between atoms: C_8  and  C_9 
REMARK    4  A    between atoms: C_11  and  O_15 
REMARK    5  A    between atoms: O_15  and  C_16 
REMARK    6  A    between atoms: C_16  and  C_17 
REMARK    7  A    between atoms: C_17  and  C_18 
REMARK    8  A    between atoms: C_18  and  O_19 
ROOT
ATOM      1 NA   UNL d   2      75.032  90.168  90.924  0.00  0.00     0.000 Na
ENDROOT
TORSDOF 8
ENDMDL
MODEL 10
REMARK VINA RESULT:      -1.0      6.728      6.728
REMARK  8 active torsions:
REMARK  status: ('A' for Active; 'I' for Inactive)
REMARK    1  A    between atoms: C_4  and  S_6 
REMARK    2  A    between atoms: S_6  and  C_8 
REMARK    3  A    between atoms: C_8  and  C_9 
REMARK    4  A    between atoms: C_11  and  O_15 
REMARK    5  A    between atoms: O_15  and  C_16 
REMARK    6  A    between atoms: C_16  and  C_17 
REMARK    7  A    between atoms: C_17  and  C_18 
REMARK    8  A    between atoms: C_18  and  O_19 
ROOT
ATOM      1 NA   UNL d   2      73.062  69.679  85.589  0.00  0.00     0.000 Na
ENDROOT
TORSDOF 8
ENDMDL
MODEL 11
REMARK VINA RESULT:      -1.0     17.044     17.044
REMARK  8 active torsions:
REMARK  status: ('A' for Active; 'I' for Inactive)
REMARK    1  A    between atoms: C_4  and  S_6 
REMARK    2  A    between atoms: S_6  and  C_8 
REMARK    3  A    between atoms: C_8  and  C_9 
REMARK    4  A    between atoms: C_11  and  O_15 
REMARK    5  A    between atoms: O_15  and  C_16 
REMARK    6  A    between atoms: C_16  and  C_17 
REMARK    7  A    between atoms: C_17  and  C_18 
REMARK    8  A    between atoms: C_18  and  O_19 
ROOT
ATOM      1 NA   UNL d   2      77.859  76.721  79.554  0.00  0.00     0.000 Na
ENDROOT
TORSDOF 8
ENDMDL
MODEL 12
REMARK VINA RESULT:      -1.0     29.592     29.592
REMARK  8 active torsions:
REMARK  status: ('A' for Active; 'I' for Inactive)
REMARK    1  A    between atoms: C_4  and  S_6 
REMARK    2  A    between atoms: S_6  and  C_8 
REMARK    3  A    between atoms: C_8  and  C_9 
REMARK    4  A    between atoms: C_11  and  O_15 
REMARK    5  A    between atoms: O_15  and  C_16 
REMARK    6  A    between atoms: C_16  and  C_17 
REMARK    7  A    between atoms: C_17  and  C_18 
REMARK    8  A    between atoms: C_18  and  O_19 
ROOT
ATOM      1 NA   UNL d   2      67.017  91.596  76.442  0.00  0.00     0.000 Na
ENDROOT
TORSDOF 8
ENDMDL
MODEL 13
REMARK VINA RESULT:      -1.0      6.450      6.450
REMARK  8 active torsions:
REMARK  status: ('A' for Active; 'I' for Inactive)
REMARK    1  A    between atoms: C_4  and  S_6 
REMARK    2  A    between atoms: S_6  and  C_8 
REMARK    3  A    between atoms: C_8  and  C_9 
REMARK    4  A    between atoms: C_11  and  O_15 
REMARK    5  A    between atoms: O_15  and  C_16 
REMARK    6  A    between atoms: C_16  and  C_17 
REMARK    7  A    between atoms: C_17  and  C_18 
REMARK    8  A    between atoms: C_18  and  O_19 
ROOT
ATOM      1 NA   UNL d   2      72.831  60.283  84.372  0.00  0.00     0.000 Na
ENDROOT
TORSDOF 8
ENDMDL
MODEL 14
REMARK VINA RESULT:      -1.0     17.936     17.936
REMARK  8 active torsions:
REMARK  status: ('A' for Active; 'I' for Inactive)
REMARK    1  A    between atoms: C_4  and  S_6 
REMARK    2  A    between atoms: S_6  and  C_8 
REMARK    3  A    between atoms: C_8  and  C_9 
REMARK    4  A    between atoms: C_11  and  O_15 
REMARK    5  A    between atoms: O_15  and  C_16 
REMARK    6  A    between atoms: C_16  and  C_17 
REMARK    7  A    between atoms: C_17  and  C_18 
REMARK    8  A    between atoms: C_18  and  O_19 
ROOT
ATOM      1 NA   UNL d   2      76.383  80.787  85.009  0.00  0.00     0.000 Na
ENDROOT
TORSDOF 8
ENDMDL
MODEL 15
REMARK VINA RESULT:      -1.0     17.897     17.897
REMARK  8 active torsions:
REMARK  status: ('A' for Active; 'I' for Inactive)
REMARK    1  A    between atoms: C_4  and  S_6 
REMARK    2  A    between atoms: S_6  and  C_8 
REMARK    3  A    between atoms: C_8  and  C_9 
REMARK    4  A    between atoms: C_11  and  O_15 
REMARK    5  A    between atoms: O_15  and  C_16 
REMARK    6  A    between atoms: C_16  and  C_17 
REMARK    7  A    between atoms: C_17  and  C_18 
REMARK    8  A    between atoms: C_18  and  O_19 
ROOT
ATOM      1 NA   UNL d   2      55.584  75.597  86.742  0.00  0.00     0.000 Na
ENDROOT
TORSDOF 8
ENDMDL
MODEL 16
REMARK VINA RESULT:      -0.9      9.123      9.123
REMARK  8 active torsions:
REMARK  status: ('A' for Active; 'I' for Inactive)
REMARK    1  A    between atoms: C_4  and  S_6 
REMARK    2  A    between atoms: S_6  and  C_8 
REMARK    3  A    between atoms: C_8  and  C_9 
REMARK    4  A    between atoms: C_11  and  O_15 
REMARK    5  A    between atoms: O_15  and  C_16 
REMARK    6  A    between atoms: C_16  and  C_17 
REMARK    7  A    between atoms: C_17  and  C_18 
REMARK    8  A    between atoms: C_18  and  O_19 
ROOT
ATOM      1 NA   UNL d   2      65.273  66.902  95.695  0.00  0.00     0.000 Na
ENDROOT
TORSDOF 8
ENDMDL
MODEL 17
REMARK VINA RESULT:      -0.9      3.635      3.635
REMARK  8 active torsions:
REMARK  status: ('A' for Active; 'I' for Inactive)
REMARK    1  A    between atoms: C_4  and  S_6 
REMARK    2  A    between atoms: S_6  and  C_8 
REMARK    3  A    between atoms: C_8  and  C_9 
REMARK    4  A    between atoms: C_11  and  O_15 
REMARK    5  A    between atoms: O_15  and  C_16 
REMARK    6  A    between atoms: C_16  and  C_17 
REMARK    7  A    between atoms: C_17  and  C_18 
REMARK    8  A    between atoms: C_18  and  O_19 
ROOT
ATOM      1 NA   UNL d   2      66.910  65.511  85.736  0.00  0.00     0.000 Na
ENDROOT
TORSDOF 8
ENDMDL
MODEL 18
REMARK VINA RESULT:      -0.9     28.032     28.032
REMARK  8 active torsions:
REMARK  status: ('A' for Active; 'I' for Inactive)
REMARK    1  A    between atoms: C_4  and  S_6 
REMARK    2  A    between atoms: S_6  and  C_8 
REMARK    3  A    between atoms: C_8  and  C_9 
REMARK    4  A    between atoms: C_11  and  O_15 
REMARK    5  A    between atoms: O_15  and  C_16 
REMARK    6  A    between atoms: C_16  and  C_17 
REMARK    7  A    between atoms: C_17  and  C_18 
REMARK    8  A    between atoms: C_18  and  O_19 
ROOT
ATOM      1 NA   UNL d   2      66.720  87.519  72.300  0.00  0.00     0.000 Na
ENDROOT
TORSDOF 8
ENDMDL
MODEL 19
REMARK VINA RESULT:      -0.9      3.577      3.577
REMARK  8 active torsions:
REMARK  status: ('A' for Active; 'I' for Inactive)
REMARK    1  A    between atoms: C_4  and  S_6 
REMARK    2  A    between atoms: S_6  and  C_8 
REMARK    3  A    between atoms: C_8  and  C_9 
REMARK    4  A    between atoms: C_11  and  O_15 
REMARK    5  A    between atoms: O_15  and  C_16 
REMARK    6  A    between atoms: C_16  and  C_17 
REMARK    7  A    between atoms: C_17  and  C_18 
REMARK    8  A    between atoms: C_18  and  O_19 
ROOT
ATOM      1 NA   UNL d   2      71.122  61.328  88.647  0.00  0.00     0.000 Na
ENDROOT
TORSDOF 8
ENDMDL
MODEL 20
REMARK VINA RESULT:      -0.8     21.186     21.186
REMARK  8 active torsions:
REMARK  status: ('A' for Active; 'I' for Inactive)
REMARK    1  A    between atoms: C_4  and  S_6 
REMARK    2  A    between atoms: S_6  and  C_8 
REMARK    3  A    between atoms: C_8  and  C_9 
REMARK    4  A    between atoms: C_11  and  O_15 
REMARK    5  A    between atoms: O_15  and  C_16 
REMARK    6  A    between atoms: C_16  and  C_17 
REMARK    7  A    between atoms: C_17  and  C_18 
REMARK    8  A    between atoms: C_18  and  O_19 
ROOT
ATOM      1 NA   UNL d   2      83.265  77.736  78.793  0.00  0.00     0.000 Na
ENDROOT
TORSDOF 8
ENDMDL
