MODEL 1
REMARK VINA RESULT:      -6.1      0.000      0.000
REMARK  2 active torsions:
REMARK  status: ('A' for Active; 'I' for Inactive)
REMARK    1  A    between atoms: C_8  and  O_9 
REMARK    2  A    between atoms: O_9  and  C_10 
ROOT
ATOM      1  N   UNL d   1      55.933  71.709  77.140  0.00  0.00    -0.072 NA
ATOM      2  C   UNL d   1      56.325  71.887  78.501  0.00  0.00     0.181 A 
ATOM      3  N   UNL d   1      57.587  71.975  78.844  0.00  0.00    -0.225 NA
ATOM      4  C   UNL d   1      57.683  72.145  80.216  0.00  0.00     0.089 A 
ATOM      5  C   UNL d   1      56.462  72.180  80.893  0.00  0.00     0.051 A 
ATOM      6  S   UNL d   1      55.180  71.996  79.759  0.00  0.00    -0.052 SA
ATOM      7  C   UNL d   1      56.384  72.345  82.284  0.00  0.00     0.033 A 
ATOM      8  C   UNL d   1      57.584  72.477  83.004  0.00  0.00     0.103 A 
ATOM      9  C   UNL d   1      58.810  72.444  82.342  0.00  0.00     0.026 A 
ATOM     10  C   UNL d   1      58.873  72.278  80.957  0.00  0.00     0.022 A 
ENDROOT
BRANCH   8  11
ATOM     11  O   UNL d   1      57.649  72.645  84.373  0.00  0.00    -0.253 OA
BRANCH  11  12
ATOM     12  C   UNL d   1      57.819  73.388  84.689  0.00  0.00     0.530 C 
ATOM     13  F   UNL d   1      57.990  74.132  85.004  0.00  0.00    -0.144 F 
ATOM     14  F   UNL d   1      56.699  73.250  85.545  0.00  0.00    -0.144 F 
ATOM     15  F   UNL d   1      58.875  72.801  85.430  0.00  0.00    -0.144 F 
ENDBRANCH  11  12
ENDBRANCH   8  11
TORSDOF 2
ENDMDL
MODEL 2
REMARK VINA RESULT:      -5.7     21.267     22.478
REMARK  2 active torsions:
REMARK  status: ('A' for Active; 'I' for Inactive)
REMARK    1  A    between atoms: C_8  and  O_9 
REMARK    2  A    between atoms: O_9  and  C_10 
ROOT
ATOM      1  N   UNL d   1      79.437  64.802  92.450  0.00  0.00    -0.072 NA
ATOM      2  C   UNL d   1      78.956  65.591  91.363  0.00  0.00     0.181 A 
ATOM      3  N   UNL d   1      79.126  65.219  90.118  0.00  0.00    -0.225 NA
ATOM      4  C   UNL d   1      78.565  66.161  89.271  0.00  0.00     0.089 A 
ATOM      5  C   UNL d   1      77.970  67.250  89.912  0.00  0.00     0.051 A 
ATOM      6  S   UNL d   1      78.131  67.062  91.615  0.00  0.00    -0.052 SA
ATOM      7  C   UNL d   1      77.357  68.292  89.200  0.00  0.00     0.033 A 
ATOM      8  C   UNL d   1      77.351  68.222  87.796  0.00  0.00     0.103 A 
ATOM      9  C   UNL d   1      77.941  67.141  87.143  0.00  0.00     0.026 A 
ATOM     10  C   UNL d   1      78.548  66.111  87.863  0.00  0.00     0.022 A 
ENDROOT
BRANCH   8  11
ATOM     11  O   UNL d   1      76.783  69.178  86.977  0.00  0.00    -0.253 OA
BRANCH  11  12
ATOM     12  C   UNL d   1      75.963  69.219  86.901  0.00  0.00     0.530 C 
ATOM     13  F   UNL d   1      75.142  69.259  86.825  0.00  0.00    -0.144 F 
ATOM     14  F   UNL d   1      76.016  70.561  87.352  0.00  0.00    -0.144 F 
ATOM     15  F   UNL d   1      76.127  69.335  85.498  0.00  0.00    -0.144 F 
ENDBRANCH  11  12
ENDBRANCH   8  11
TORSDOF 2
ENDMDL
MODEL 3
REMARK VINA RESULT:      -5.7     20.675     21.758
REMARK  2 active torsions:
REMARK  status: ('A' for Active; 'I' for Inactive)
REMARK    1  A    between atoms: C_8  and  O_9 
REMARK    2  A    between atoms: O_9  and  C_10 
ROOT
ATOM      1  N   UNL d   1      76.791  73.588  90.056  0.00  0.00    -0.072 NA
ATOM      2  C   UNL d   1      76.898  72.255  89.560  0.00  0.00     0.181 A 
ATOM      3  N   UNL d   1      76.229  71.861  88.504  0.00  0.00    -0.225 NA
ATOM      4  C   UNL d   1      76.517  70.531  88.243  0.00  0.00     0.089 A 
ATOM      5  C   UNL d   1      77.417  69.936  89.129  0.00  0.00     0.051 A 
ATOM      6  S   UNL d   1      77.899  71.095  90.307  0.00  0.00    -0.052 SA
ATOM      7  C   UNL d   1      77.813  68.596  89.005  0.00  0.00     0.033 A 
ATOM      8  C   UNL d   1      77.276  67.842  87.948  0.00  0.00     0.103 A 
ATOM      9  C   UNL d   1      76.377  68.421  87.055  0.00  0.00     0.026 A 
ATOM     10  C   UNL d   1      75.990  69.756  87.191  0.00  0.00     0.022 A 
ENDROOT
BRANCH   8  11
ATOM     11  O   UNL d   1      77.582  66.516  87.712  0.00  0.00    -0.253 OA
BRANCH  11  12
ATOM     12  C   UNL d   1      77.631  65.987  88.343  0.00  0.00     0.530 C 
ATOM     13  F   UNL d   1      77.681  65.458  88.974  0.00  0.00    -0.144 F 
ATOM     14  F   UNL d   1      76.630  65.198  87.724  0.00  0.00    -0.144 F 
ATOM     15  F   UNL d   1      78.835  65.483  87.790  0.00  0.00    -0.144 F 
ENDBRANCH  11  12
ENDBRANCH   8  11
TORSDOF 2
ENDMDL
MODEL 4
REMARK VINA RESULT:      -5.6     21.290     22.496
REMARK  2 active torsions:
REMARK  status: ('A' for Active; 'I' for Inactive)
REMARK    1  A    between atoms: C_8  and  O_9 
REMARK    2  A    between atoms: O_9  and  C_10 
ROOT
ATOM      1  N   UNL d   1      79.620  63.375  91.093  0.00  0.00    -0.072 NA
ATOM      2  C   UNL d   1      79.078  64.504  90.408  0.00  0.00     0.181 A 
ATOM      3  N   UNL d   1      78.706  65.583  91.053  0.00  0.00    -0.225 NA
ATOM      4  C   UNL d   1      78.222  66.517  90.152  0.00  0.00     0.089 A 
ATOM      5  C   UNL d   1      78.238  66.112  88.816  0.00  0.00     0.051 A 
ATOM      6  S   UNL d   1      78.882  64.520  88.715  0.00  0.00    -0.052 SA
ATOM      7  C   UNL d   1      77.781  66.940  87.779  0.00  0.00     0.033 A 
ATOM      8  C   UNL d   1      77.294  68.215  88.115  0.00  0.00     0.103 A 
ATOM      9  C   UNL d   1      77.272  68.633  89.444  0.00  0.00     0.026 A 
ATOM     10  C   UNL d   1      77.729  67.799  90.466  0.00  0.00     0.022 A 
ENDROOT
BRANCH   8  11
ATOM     11  O   UNL d   1      76.816  69.126  87.194  0.00  0.00    -0.253 OA
BRANCH  11  12
ATOM     12  C   UNL d   1      76.018  69.121  86.986  0.00  0.00     0.530 C 
ATOM     13  F   UNL d   1      75.219  69.115  86.778  0.00  0.00    -0.144 F 
ATOM     14  F   UNL d   1      75.960  70.505  87.284  0.00  0.00    -0.144 F 
ATOM     15  F   UNL d   1      76.402  69.093  85.622  0.00  0.00    -0.144 F 
ENDBRANCH  11  12
ENDBRANCH   8  11
TORSDOF 2
ENDMDL
MODEL 5
REMARK VINA RESULT:      -5.5     29.381     30.558
REMARK  2 active torsions:
REMARK  status: ('A' for Active; 'I' for Inactive)
REMARK    1  A    between atoms: C_8  and  O_9 
REMARK    2  A    between atoms: O_9  and  C_10 
ROOT
ATOM      1  N   UNL d   1      78.094  81.600  96.580  0.00  0.00    -0.072 NA
ATOM      2  C   UNL d   1      79.481  81.506  96.259  0.00  0.00     0.181 A 
ATOM      3  N   UNL d   1      79.894  80.892  95.177  0.00  0.00    -0.225 NA
ATOM      4  C   UNL d   1      81.276  80.951  95.110  0.00  0.00     0.089 A 
ATOM      5  C   UNL d   1      81.891  81.623  96.169  0.00  0.00     0.051 A 
ATOM      6  S   UNL d   1      80.683  82.186  97.259  0.00  0.00    -0.052 SA
ATOM      7  C   UNL d   1      83.283  81.772  96.253  0.00  0.00     0.033 A 
ATOM      8  C   UNL d   1      84.071  81.219  95.228  0.00  0.00     0.103 A 
ATOM      9  C   UNL d   1      83.472  80.546  94.165  0.00  0.00     0.026 A 
ATOM     10  C   UNL d   1      82.085  80.405  94.095  0.00  0.00     0.022 A 
ENDROOT
BRANCH   8  11
ATOM     11  O   UNL d   1      85.450  81.293  95.188  0.00  0.00    -0.253 OA
BRANCH  11  12
ATOM     12  C   UNL d   1      85.896  80.606  95.093  0.00  0.00     0.530 C 
ATOM     13  F   UNL d   1      86.342  79.919  94.998  0.00  0.00    -0.144 F 
ATOM     14  F   UNL d   1      86.926  81.388  94.515  0.00  0.00    -0.144 F 
ATOM     15  F   UNL d   1      86.194  80.641  96.478  0.00  0.00    -0.144 F 
ENDBRANCH  11  12
ENDBRANCH   8  11
TORSDOF 2
ENDMDL
MODEL 6
REMARK VINA RESULT:      -5.5     28.939     30.152
REMARK  2 active torsions:
REMARK  status: ('A' for Active; 'I' for Inactive)
REMARK    1  A    between atoms: C_8  and  O_9 
REMARK    2  A    between atoms: O_9  and  C_10 
ROOT
ATOM      1  N   UNL d   1      80.848  75.284  93.195  0.00  0.00    -0.072 NA
ATOM      2  C   UNL d   1      81.673  76.421  93.444  0.00  0.00     0.181 A 
ATOM      3  N   UNL d   1      81.228  77.642  93.271  0.00  0.00    -0.225 NA
ATOM      4  C   UNL d   1      82.227  78.549  93.585  0.00  0.00     0.089 A 
ATOM      5  C   UNL d   1      83.434  77.979  93.997  0.00  0.00     0.051 A 
ATOM      6  S   UNL d   1      83.283  76.264  93.982  0.00  0.00    -0.052 SA
ATOM      7  C   UNL d   1      84.546  78.757  94.350  0.00  0.00     0.033 A 
ATOM      8  C   UNL d   1      84.424  80.156  94.281  0.00  0.00     0.103 A 
ATOM      9  C   UNL d   1      83.226  80.740  93.872  0.00  0.00     0.026 A 
ATOM     10  C   UNL d   1      82.128  79.953  93.523  0.00  0.00     0.022 A 
ENDROOT
BRANCH   8  11
ATOM     11  O   UNL d   1      85.440  81.036  94.600  0.00  0.00    -0.253 OA
BRANCH  11  12
ATOM     12  C   UNL d   1      86.098  80.769  95.019  0.00  0.00     0.530 C 
ATOM     13  F   UNL d   1      86.757  80.502  95.438  0.00  0.00    -0.144 F 
ATOM     14  F   UNL d   1      86.901  81.667  94.274  0.00  0.00    -0.144 F 
ATOM     15  F   UNL d   1      85.675  81.547  96.126  0.00  0.00    -0.144 F 
ENDBRANCH  11  12
ENDBRANCH   8  11
TORSDOF 2
ENDMDL
MODEL 7
REMARK VINA RESULT:      -5.3     20.476     21.714
REMARK  2 active torsions:
REMARK  status: ('A' for Active; 'I' for Inactive)
REMARK    1  A    between atoms: C_8  and  O_9 
REMARK    2  A    between atoms: O_9  and  C_10 
ROOT
ATOM      1  N   UNL d   1      77.415  67.273  94.332  0.00  0.00    -0.072 NA
ATOM      2  C   UNL d   1      77.182  67.760  93.011  0.00  0.00     0.181 A 
ATOM      3  N   UNL d   1      76.212  68.603  92.753  0.00  0.00    -0.225 NA
ATOM      4  C   UNL d   1      76.212  68.909  91.402  0.00  0.00     0.089 A 
ATOM      5  C   UNL d   1      77.205  68.275  90.652  0.00  0.00     0.051 A 
ATOM      6  S   UNL d   1      78.147  67.278  91.691  0.00  0.00    -0.052 SA
ATOM      7  C   UNL d   1      77.342  68.476  89.270  0.00  0.00     0.033 A 
ATOM      8  C   UNL d   1      76.441  69.349  88.636  0.00  0.00     0.103 A 
ATOM      9  C   UNL d   1      75.445  69.990  89.371  0.00  0.00     0.026 A 
ATOM     10  C   UNL d   1      75.319  69.780  90.745  0.00  0.00     0.022 A 
ENDROOT
BRANCH   8  11
ATOM     11  O   UNL d   1      76.465  69.636  87.285  0.00  0.00    -0.253 OA
BRANCH  11  12
ATOM     12  C   UNL d   1      75.893  69.313  86.786  0.00  0.00     0.530 C 
ATOM     13  F   UNL d   1      75.321  68.989  86.287  0.00  0.00    -0.144 F 
ATOM     14  F   UNL d   1      75.828  70.552  86.103  0.00  0.00    -0.144 F 
ATOM     15  F   UNL d   1      76.922  68.615  86.105  0.00  0.00    -0.144 F 
ENDBRANCH  11  12
ENDBRANCH   8  11
TORSDOF 2
ENDMDL
MODEL 8
REMARK VINA RESULT:      -5.2     20.111     20.717
REMARK  2 active torsions:
REMARK  status: ('A' for Active; 'I' for Inactive)
REMARK    1  A    between atoms: C_8  and  O_9 
REMARK    2  A    between atoms: O_9  and  C_10 
ROOT
ATOM      1  N   UNL d   1      75.092  74.484  93.020  0.00  0.00    -0.072 NA
ATOM      2  C   UNL d   1      75.351  73.541  91.981  0.00  0.00     0.181 A 
ATOM      3  N   UNL d   1      75.342  72.250  92.210  0.00  0.00    -0.225 NA
ATOM      4  C   UNL d   1      75.620  71.570  91.036  0.00  0.00     0.089 A 
ATOM      5  C   UNL d   1      75.840  72.382  89.921  0.00  0.00     0.051 A 
ATOM      6  S   UNL d   1      75.685  74.032  90.383  0.00  0.00    -0.052 SA
ATOM      7  C   UNL d   1      76.134  71.851  88.656  0.00  0.00     0.033 A 
ATOM      8  C   UNL d   1      76.207  70.453  88.525  0.00  0.00     0.103 A 
ATOM      9  C   UNL d   1      75.990  69.629  89.629  0.00  0.00     0.026 A 
ATOM     10  C   UNL d   1      75.699  70.172  90.882  0.00  0.00     0.022 A 
ENDROOT
BRANCH   8  11
ATOM     11  O   UNL d   1      76.487  69.802  87.340  0.00  0.00    -0.253 OA
BRANCH  11  12
ATOM     12  C   UNL d   1      75.933  69.285  87.014  0.00  0.00     0.530 C 
ATOM     13  F   UNL d   1      75.378  68.768  86.688  0.00  0.00    -0.144 F 
ATOM     14  F   UNL d   1      75.860  70.125  85.875  0.00  0.00    -0.144 F 
ATOM     15  F   UNL d   1      76.990  68.394  86.700  0.00  0.00    -0.144 F 
ENDBRANCH  11  12
ENDBRANCH   8  11
TORSDOF 2
ENDMDL
MODEL 9
REMARK VINA RESULT:      -5.2     21.471     22.422
REMARK  2 active torsions:
REMARK  status: ('A' for Active; 'I' for Inactive)
REMARK    1  A    between atoms: C_8  and  O_9 
REMARK    2  A    between atoms: O_9  and  C_10 
ROOT
ATOM      1  N   UNL d   1      75.499  69.657  94.479  0.00  0.00    -0.072 NA
ATOM      2  C   UNL d   1      75.976  69.305  93.181  0.00  0.00     0.181 A 
ATOM      3  N   UNL d   1      75.548  69.919  92.104  0.00  0.00    -0.225 NA
ATOM      4  C   UNL d   1      76.172  69.385  90.988  0.00  0.00     0.089 A 
ATOM      5  C   UNL d   1      77.076  68.355  91.253  0.00  0.00     0.051 A 
ATOM      6  S   UNL d   1      77.129  68.070  92.950  0.00  0.00    -0.052 SA
ATOM      7  C   UNL d   1      77.791  67.707  90.235  0.00  0.00     0.033 A 
ATOM      8  C   UNL d   1      77.576  68.121  88.908  0.00  0.00     0.103 A 
ATOM      9  C   UNL d   1      76.676  69.148  88.628  0.00  0.00     0.026 A 
ATOM     10  C   UNL d   1      75.971  69.783  89.652  0.00  0.00     0.022 A 
ENDROOT
BRANCH   8  11
ATOM     11  O   UNL d   1      78.212  67.569  87.814  0.00  0.00    -0.253 OA
BRANCH  11  12
ATOM     12  C   UNL d   1      77.890  66.907  87.442  0.00  0.00     0.530 C 
ATOM     13  F   UNL d   1      77.568  66.245  87.070  0.00  0.00    -0.144 F 
ATOM     14  F   UNL d   1      78.281  67.453  86.194  0.00  0.00    -0.144 F 
ATOM     15  F   UNL d   1      79.026  66.162  87.846  0.00  0.00    -0.144 F 
ENDBRANCH  11  12
ENDBRANCH   8  11
TORSDOF 2
ENDMDL
MODEL 10
REMARK VINA RESULT:      -5.2     28.843     30.142
REMARK  2 active torsions:
REMARK  status: ('A' for Active; 'I' for Inactive)
REMARK    1  A    between atoms: C_8  and  O_9 
REMARK    2  A    between atoms: O_9  and  C_10 
ROOT
ATOM      1  N   UNL d   1      78.079  78.672  97.980  0.00  0.00    -0.072 NA
ATOM      2  C   UNL d   1      79.305  79.191  97.466  0.00  0.00     0.181 A 
ATOM      3  N   UNL d   1      79.503  80.480  97.336  0.00  0.00    -0.225 NA
ATOM      4  C   UNL d   1      80.769  80.704  96.819  0.00  0.00     0.089 A 
ATOM      5  C   UNL d   1      81.515  79.552  96.562  0.00  0.00     0.051 A 
ATOM      6  S   UNL d   1      80.585  78.169  96.991  0.00  0.00    -0.052 SA
ATOM      7  C   UNL d   1      82.815  79.605  96.037  0.00  0.00     0.033 A 
ATOM      8  C   UNL d   1      83.369  80.868  95.766  0.00  0.00     0.103 A 
ATOM      9  C   UNL d   1      82.637  82.027  96.017  0.00  0.00     0.026 A 
ATOM     10  C   UNL d   1      81.343  81.960  96.539  0.00  0.00     0.022 A 
ENDROOT
BRANCH   8  11
ATOM     11  O   UNL d   1      84.635  81.061  95.249  0.00  0.00    -0.253 OA
BRANCH  11  12
ATOM     12  C   UNL d   1      84.994  80.464  94.807  0.00  0.00     0.530 C 
ATOM     13  F   UNL d   1      85.353  79.867  94.365  0.00  0.00    -0.144 F 
ATOM     14  F   UNL d   1      84.705  81.200  93.631  0.00  0.00    -0.144 F 
ATOM     15  F   UNL d   1      86.257  80.966  95.208  0.00  0.00    -0.144 F 
ENDBRANCH  11  12
ENDBRANCH   8  11
TORSDOF 2
ENDMDL
MODEL 11
REMARK VINA RESULT:      -5.2     20.550     21.526
REMARK  2 active torsions:
REMARK  status: ('A' for Active; 'I' for Inactive)
REMARK    1  A    between atoms: C_8  and  O_9 
REMARK    2  A    between atoms: O_9  and  C_10 
ROOT
ATOM      1  N   UNL d   1      77.665  75.420  91.421  0.00  0.00    -0.072 NA
ATOM      2  C   UNL d   1      77.461  74.190  90.726  0.00  0.00     0.181 A 
ATOM      3  N   UNL d   1      78.455  73.375  90.470  0.00  0.00    -0.225 NA
ATOM      4  C   UNL d   1      77.980  72.264  89.792  0.00  0.00     0.089 A 
ATOM      5  C   UNL d   1      76.605  72.266  89.545  0.00  0.00     0.051 A 
ATOM      6  S   UNL d   1      75.917  73.706  90.190  0.00  0.00    -0.052 SA
ATOM      7  C   UNL d   1      75.966  71.216  88.869  0.00  0.00     0.033 A 
ATOM      8  C   UNL d   1      76.750  70.134  88.432  0.00  0.00     0.103 A 
ATOM      9  C   UNL d   1      78.123  70.117  88.672  0.00  0.00     0.026 A 
ATOM     10  C   UNL d   1      78.747  71.170  89.345  0.00  0.00     0.022 A 
ENDROOT
BRANCH   8  11
ATOM     11  O   UNL d   1      76.248  69.039  87.758  0.00  0.00    -0.253 OA
BRANCH  11  12
ATOM     12  C   UNL d   1      76.533  68.853  87.006  0.00  0.00     0.530 C 
ATOM     13  F   UNL d   1      76.818  68.667  86.255  0.00  0.00    -0.144 F 
ATOM     14  F   UNL d   1      76.540  67.485  87.378  0.00  0.00    -0.144 F 
ATOM     15  F   UNL d   1      75.227  69.049  86.493  0.00  0.00    -0.144 F 
ENDBRANCH  11  12
ENDBRANCH   8  11
TORSDOF 2
ENDMDL
MODEL 12
REMARK VINA RESULT:      -5.1     21.708     22.969
REMARK  2 active torsions:
REMARK  status: ('A' for Active; 'I' for Inactive)
REMARK    1  A    between atoms: C_8  and  O_9 
REMARK    2  A    between atoms: O_9  and  C_10 
ROOT
ATOM      1  N   UNL d   1      81.863  69.194  92.679  0.00  0.00    -0.072 NA
ATOM      2  C   UNL d   1      80.865  69.271  91.662  0.00  0.00     0.181 A 
ATOM      3  N   UNL d   1      80.320  70.414  91.322  0.00  0.00    -0.225 NA
ATOM      4  C   UNL d   1      79.389  70.202  90.318  0.00  0.00     0.089 A 
ATOM      5  C   UNL d   1      79.248  68.873  89.914  0.00  0.00     0.051 A 
ATOM      6  S   UNL d   1      80.321  67.887  90.830  0.00  0.00    -0.052 SA
ATOM      7  C   UNL d   1      78.348  68.489  88.908  0.00  0.00     0.033 A 
ATOM      8  C   UNL d   1      77.570  69.488  88.298  0.00  0.00     0.103 A 
ATOM      9  C   UNL d   1      77.700  70.820  88.691  0.00  0.00     0.026 A 
ATOM     10  C   UNL d   1      78.599  71.188  89.693  0.00  0.00     0.022 A 
ENDROOT
BRANCH   8  11
ATOM     11  O   UNL d   1      76.649  69.247  87.298  0.00  0.00    -0.253 OA
BRANCH  11  12
ATOM     12  C   UNL d   1      75.842  69.299  87.461  0.00  0.00     0.530 C 
ATOM     13  F   UNL d   1      75.035  69.351  87.624  0.00  0.00    -0.144 F 
ATOM     14  F   UNL d   1      75.652  69.898  86.191  0.00  0.00    -0.144 F 
ATOM     15  F   UNL d   1      75.728  67.912  87.191  0.00  0.00    -0.144 F 
ENDBRANCH  11  12
ENDBRANCH   8  11
TORSDOF 2
ENDMDL
MODEL 13
REMARK VINA RESULT:      -5.1     29.978     31.777
REMARK  2 active torsions:
REMARK  status: ('A' for Active; 'I' for Inactive)
REMARK    1  A    between atoms: C_8  and  O_9 
REMARK    2  A    between atoms: O_9  and  C_10 
ROOT
ATOM      1  N   UNL d   1      74.632  92.170 106.957  0.00  0.00    -0.072 NA
ATOM      2  C   UNL d   1      74.028  91.455 105.879  0.00  0.00     0.181 A 
ATOM      3  N   UNL d   1      72.835  90.926 105.992  0.00  0.00    -0.225 NA
ATOM      4  C   UNL d   1      72.494  90.297 104.806  0.00  0.00     0.089 A 
ATOM      5  C   UNL d   1      73.461  90.366 103.801  0.00  0.00     0.051 A 
ATOM      6  S   UNL d   1      74.819  91.248 104.383  0.00  0.00    -0.052 SA
ATOM      7  C   UNL d   1      73.273  89.779 102.540  0.00  0.00     0.033 A 
ATOM      8  C   UNL d   1      72.064  89.104 102.298  0.00  0.00     0.103 A 
ATOM      9  C   UNL d   1      71.089  89.026 103.291  0.00  0.00     0.026 A 
ATOM     10  C   UNL d   1      71.290  89.614 104.541  0.00  0.00     0.022 A 
ENDROOT
BRANCH   8  11
ATOM     11  O   UNL d   1      71.751  88.485 101.104  0.00  0.00    -0.253 OA
BRANCH  11  12
ATOM     12  C   UNL d   1      71.848  88.891 100.392  0.00  0.00     0.530 C 
ATOM     13  F   UNL d   1      71.944  89.298  99.681  0.00  0.00    -0.144 F 
ATOM     14  F   UNL d   1      72.562  87.778  99.885  0.00  0.00    -0.144 F 
ATOM     15  F   UNL d   1      70.500  88.592 100.071  0.00  0.00    -0.144 F 
ENDBRANCH  11  12
ENDBRANCH   8  11
TORSDOF 2
ENDMDL
MODEL 14
REMARK VINA RESULT:      -5.0     27.526     29.134
REMARK  2 active torsions:
REMARK  status: ('A' for Active; 'I' for Inactive)
REMARK    1  A    between atoms: C_8  and  O_9 
REMARK    2  A    between atoms: O_9  and  C_10 
ROOT
ATOM      1  N   UNL d   1      67.429  86.749  98.843  0.00  0.00    -0.072 NA
ATOM      2  C   UNL d   1      68.441  87.394  99.614  0.00  0.00     0.181 A 
ATOM      3  N   UNL d   1      69.644  87.596  99.133  0.00  0.00    -0.225 NA
ATOM      4  C   UNL d   1      70.421  88.238 100.084  0.00  0.00     0.089 A 
ATOM      5  C   UNL d   1      69.772  88.512 101.290  0.00  0.00     0.051 A 
ATOM      6  S   UNL d   1      68.151  87.942 101.202  0.00  0.00    -0.052 SA
ATOM      7  C   UNL d   1      70.418  89.157 102.356  0.00  0.00     0.033 A 
ATOM      8  C   UNL d   1      71.762  89.532 102.187  0.00  0.00     0.103 A 
ATOM      9  C   UNL d   1      72.423  89.266 100.989  0.00  0.00     0.026 A 
ATOM     10  C   UNL d   1      71.769  88.622  99.937  0.00  0.00     0.022 A 
ENDROOT
BRANCH   8  11
ATOM     11  O   UNL d   1      72.512  90.172 103.154  0.00  0.00    -0.253 OA
BRANCH  11  12
ATOM     12  C   UNL d   1      72.874  89.732 103.751  0.00  0.00     0.530 C 
ATOM     13  F   UNL d   1      73.237  89.293 104.348  0.00  0.00    -0.144 F 
ATOM     14  F   UNL d   1      74.086  90.416 103.480  0.00  0.00    -0.144 F 
ATOM     15  F   UNL d   1      72.236  90.560 104.708  0.00  0.00    -0.144 F 
ENDBRANCH  11  12
ENDBRANCH   8  11
TORSDOF 2
ENDMDL
MODEL 15
REMARK VINA RESULT:      -5.0     22.135     23.138
REMARK  2 active torsions:
REMARK  status: ('A' for Active; 'I' for Inactive)
REMARK    1  A    between atoms: C_8  and  O_9 
REMARK    2  A    between atoms: O_9  and  C_10 
ROOT
ATOM      1  N   UNL d   1      67.156  87.843  98.140  0.00  0.00    -0.072 NA
ATOM      2  C   UNL d   1      66.463  88.436  97.043  0.00  0.00     0.181 A 
ATOM      3  N   UNL d   1      65.473  89.275  97.231  0.00  0.00    -0.225 NA
ATOM      4  C   UNL d   1      64.984  89.696  96.005  0.00  0.00     0.089 A 
ATOM      5  C   UNL d   1      65.631  89.152  94.893  0.00  0.00     0.051 A 
ATOM      6  S   UNL d   1      66.878  88.092  95.426  0.00  0.00    -0.052 SA
ATOM      7  C   UNL d   1      65.258  89.475  93.579  0.00  0.00     0.033 A 
ATOM      8  C   UNL d   1      64.195  90.377  93.395  0.00  0.00     0.103 A 
ATOM      9  C   UNL d   1      63.540  90.928  94.495  0.00  0.00     0.026 A 
ATOM     10  C   UNL d   1      63.922  90.598  95.797  0.00  0.00     0.022 A 
ENDROOT
BRANCH   8  11
ATOM     11  O   UNL d   1      63.729  90.779  92.159  0.00  0.00    -0.253 OA
BRANCH  11  12
ATOM     12  C   UNL d   1      64.117  90.534  91.474  0.00  0.00     0.530 C 
ATOM     13  F   UNL d   1      64.505  90.288  90.788  0.00  0.00    -0.144 F 
ATOM     14  F   UNL d   1      63.013  89.693  91.184  0.00  0.00    -0.144 F 
ATOM     15  F   UNL d   1      63.762  91.764  90.866  0.00  0.00    -0.144 F 
ENDBRANCH  11  12
ENDBRANCH   8  11
TORSDOF 2
ENDMDL
MODEL 16
REMARK VINA RESULT:      -4.8     16.495     18.309
REMARK  2 active torsions:
REMARK  status: ('A' for Active; 'I' for Inactive)
REMARK    1  A    between atoms: C_8  and  O_9 
REMARK    2  A    between atoms: O_9  and  C_10 
ROOT
ATOM      1  N   UNL d   1      56.196  72.521 104.318  0.00  0.00    -0.072 NA
ATOM      2  C   UNL d   1      56.116  72.489 102.894  0.00  0.00     0.181 A 
ATOM      3  N   UNL d   1      56.819  71.639 102.187  0.00  0.00    -0.225 NA
ATOM      4  C   UNL d   1      56.551  71.822 100.840  0.00  0.00     0.089 A 
ATOM      5  C   UNL d   1      55.630  72.832 100.554  0.00  0.00     0.051 A 
ATOM      6  S   UNL d   1      55.103  73.551 102.026  0.00  0.00    -0.052 SA
ATOM      7  C   UNL d   1      55.249  73.147  99.241  0.00  0.00     0.033 A 
ATOM      8  C   UNL d   1      55.825  72.410  98.190  0.00  0.00     0.103 A 
ATOM      9  C   UNL d   1      56.745  71.399  98.460  0.00  0.00     0.026 A 
ATOM     10  C   UNL d   1      57.116  71.098  99.772  0.00  0.00     0.022 A 
ENDROOT
BRANCH   8  11
ATOM     11  O   UNL d   1      55.538  72.616  96.855  0.00  0.00    -0.253 OA
BRANCH  11  12
ATOM     12  C   UNL d   1      54.955  73.160  96.639  0.00  0.00     0.530 C 
ATOM     13  F   UNL d   1      54.373  73.703  96.423  0.00  0.00    -0.144 F 
ATOM     14  F   UNL d   1      55.969  73.988  96.098  0.00  0.00    -0.144 F 
ATOM     15  F   UNL d   1      54.609  72.314  95.556  0.00  0.00    -0.144 F 
ENDBRANCH  11  12
ENDBRANCH   8  11
TORSDOF 2
ENDMDL
MODEL 17
REMARK VINA RESULT:      -4.8     21.456     22.276
REMARK  2 active torsions:
REMARK  status: ('A' for Active; 'I' for Inactive)
REMARK    1  A    between atoms: C_8  and  O_9 
REMARK    2  A    between atoms: O_9  and  C_10 
ROOT
ATOM      1  N   UNL d   1      60.630  86.327  97.195  0.00  0.00    -0.072 NA
ATOM      2  C   UNL d   1      61.276  87.272  96.342  0.00  0.00     0.181 A 
ATOM      3  N   UNL d   1      61.032  88.557  96.435  0.00  0.00    -0.225 NA
ATOM      4  C   UNL d   1      61.789  89.240  95.497  0.00  0.00     0.089 A 
ATOM      5  C   UNL d   1      62.606  88.437  94.698  0.00  0.00     0.051 A 
ATOM      6  S   UNL d   1      62.401  86.790  95.156  0.00  0.00    -0.052 SA
ATOM      7  C   UNL d   1      63.434  88.972  93.700  0.00  0.00     0.033 A 
ATOM      8  C   UNL d   1      63.429  90.365  93.512  0.00  0.00     0.103 A 
ATOM      9  C   UNL d   1      62.620  91.180  94.302  0.00  0.00     0.026 A 
ATOM     10  C   UNL d   1      61.799  90.634  95.291  0.00  0.00     0.022 A 
ENDROOT
BRANCH   8  11
ATOM     11  O   UNL d   1      64.195  91.020  92.568  0.00  0.00    -0.253 OA
BRANCH  11  12
ATOM     12  C   UNL d   1      63.829  91.446  91.965  0.00  0.00     0.530 C 
ATOM     13  F   UNL d   1      63.462  91.873  91.361  0.00  0.00    -0.144 F 
ATOM     14  F   UNL d   1      64.774  92.483  92.161  0.00  0.00    -0.144 F 
ATOM     15  F   UNL d   1      64.460  90.599  91.020  0.00  0.00    -0.144 F 
ENDBRANCH  11  12
ENDBRANCH   8  11
TORSDOF 2
ENDMDL
MODEL 18
REMARK VINA RESULT:      -4.7     21.157     22.644
REMARK  2 active torsions:
REMARK  status: ('A' for Active; 'I' for Inactive)
REMARK    1  A    between atoms: C_8  and  O_9 
REMARK    2  A    between atoms: O_9  and  C_10 
ROOT
ATOM      1  N   UNL d   1      59.743  87.454  92.096  0.00  0.00    -0.072 NA
ATOM      2  C   UNL d   1      60.656  88.225  92.876  0.00  0.00     0.181 A 
ATOM      3  N   UNL d   1      61.902  88.392  92.505  0.00  0.00    -0.225 NA
ATOM      4  C   UNL d   1      62.562  89.176  93.437  0.00  0.00     0.089 A 
ATOM      5  C   UNL d   1      61.780  89.593  94.517  0.00  0.00     0.051 A 
ATOM      6  S   UNL d   1      60.185  88.973  94.333  0.00  0.00    -0.052 SA
ATOM      7  C   UNL d   1      62.296  90.392  95.548  0.00  0.00     0.033 A 
ATOM      8  C   UNL d   1      63.646  90.777  95.476  0.00  0.00     0.103 A 
ATOM      9  C   UNL d   1      64.439  90.369  94.404  0.00  0.00     0.026 A 
ATOM     10  C   UNL d   1      63.913  89.573  93.385  0.00  0.00     0.022 A 
ENDROOT
BRANCH   8  11
ATOM     11  O   UNL d   1      64.277  91.561  96.422  0.00  0.00    -0.253 OA
BRANCH  11  12
ATOM     12  C   UNL d   1      64.629  91.208  97.080  0.00  0.00     0.530 C 
ATOM     13  F   UNL d   1      64.980  90.856  97.737  0.00  0.00    -0.144 F 
ATOM     14  F   UNL d   1      65.868  91.768  96.682  0.00  0.00    -0.144 F 
ATOM     15  F   UNL d   1      64.056  92.219  97.892  0.00  0.00    -0.144 F 
ENDBRANCH  11  12
ENDBRANCH   8  11
TORSDOF 2
ENDMDL
MODEL 19
REMARK VINA RESULT:      -4.7     20.938     21.845
REMARK  2 active torsions:
REMARK  status: ('A' for Active; 'I' for Inactive)
REMARK    1  A    between atoms: C_8  and  O_9 
REMARK    2  A    between atoms: O_9  and  C_10 
ROOT
ATOM      1  N   UNL d   1      63.358  85.830  97.701  0.00  0.00    -0.072 NA
ATOM      2  C   UNL d   1      63.396  86.748  96.609  0.00  0.00     0.181 A 
ATOM      3  N   UNL d   1      64.166  87.808  96.632  0.00  0.00    -0.225 NA
ATOM      4  C   UNL d   1      64.009  88.520  95.454  0.00  0.00     0.089 A 
ATOM      5  C   UNL d   1      63.100  87.970  94.548  0.00  0.00     0.051 A 
ATOM      6  S   UNL d   1      62.443  86.524  95.213  0.00  0.00    -0.052 SA
ATOM      7  C   UNL d   1      62.824  88.567  93.309  0.00  0.00     0.033 A 
ATOM      8  C   UNL d   1      63.495  89.760  92.985  0.00  0.00     0.103 A 
ATOM      9  C   UNL d   1      64.405  90.322  93.879  0.00  0.00     0.026 A 
ATOM     10  C   UNL d   1      64.669  89.717  95.109  0.00  0.00     0.022 A 
ENDROOT
BRANCH   8  11
ATOM     11  O   UNL d   1      63.317  90.449  91.801  0.00  0.00    -0.253 OA
BRANCH  11  12
ATOM     12  C   UNL d   1      63.919  90.459  91.238  0.00  0.00     0.530 C 
ATOM     13  F   UNL d   1      64.521  90.470  90.674  0.00  0.00    -0.144 F 
ATOM     14  F   UNL d   1      63.074  89.733  90.363  0.00  0.00    -0.144 F 
ATOM     15  F   UNL d   1      63.596  91.811  90.959  0.00  0.00    -0.144 F 
ENDBRANCH  11  12
ENDBRANCH   8  11
TORSDOF 2
ENDMDL
MODEL 20
REMARK VINA RESULT:      -4.6     21.961     22.722
REMARK  2 active torsions:
REMARK  status: ('A' for Active; 'I' for Inactive)
REMARK    1  A    between atoms: C_8  and  O_9 
REMARK    2  A    between atoms: O_9  and  C_10 
ROOT
ATOM      1  N   UNL d   1      62.598  74.472 103.223  0.00  0.00    -0.072 NA
ATOM      2  C   UNL d   1      63.594  73.493 102.927  0.00  0.00     0.181 A 
ATOM      3  N   UNL d   1      63.309  72.408 102.250  0.00  0.00    -0.225 NA
ATOM      4  C   UNL d   1      64.451  71.638 102.106  0.00  0.00     0.089 A 
ATOM      5  C   UNL d   1      65.601  72.171 102.693  0.00  0.00     0.051 A 
ATOM      6  S   UNL d   1      65.212  73.675 103.434  0.00  0.00    -0.052 SA
ATOM      7  C   UNL d   1      66.841  71.517 102.638  0.00  0.00     0.033 A 
ATOM      8  C   UNL d   1      66.910  70.284 101.967  0.00  0.00     0.103 A 
ATOM      9  C   UNL d   1      65.771  69.738 101.376  0.00  0.00     0.026 A 
ATOM     10  C   UNL d   1      64.543  70.400 101.439  0.00  0.00     0.022 A 
ENDROOT
BRANCH   8  11
ATOM     11  O   UNL d   1      68.065  69.537 101.840  0.00  0.00    -0.253 OA
BRANCH  11  12
ATOM     12  C   UNL d   1      68.521  69.369 102.506  0.00  0.00     0.530 C 
ATOM     13  F   UNL d   1      68.977  69.200 103.172  0.00  0.00    -0.144 F 
ATOM     14  F   UNL d   1      68.447  67.993 102.173  0.00  0.00    -0.144 F 
ATOM     15  F   UNL d   1      69.666  69.817 101.801  0.00  0.00    -0.144 F 
ENDBRANCH  11  12
ENDBRANCH   8  11
TORSDOF 2
ENDMDL
