MODEL 1
REMARK VINA RESULT:      -1.1      0.000      0.000
REMARK  1 active torsions:
REMARK  status: ('A' for Active; 'I' for Inactive)
REMARK    1  A    between atoms: C_8  and  C_11 
ROOT
ATOM      1 CL   UNL d   2      67.206  88.740  77.744  0.00  0.00     0.000 Cl
ENDROOT
TORSDOF 1
ENDMDL
MODEL 2
REMARK VINA RESULT:      -1.1     16.649     16.649
REMARK  1 active torsions:
REMARK  status: ('A' for Active; 'I' for Inactive)
REMARK    1  A    between atoms: C_8  and  C_11 
ROOT
ATOM      1 CL   UNL d   2      79.243  78.208  82.364  0.00  0.00     0.000 Cl
ENDROOT
TORSDOF 1
ENDMDL
MODEL 3
REMARK VINA RESULT:      -1.0     18.804     18.804
REMARK  1 active torsions:
REMARK  status: ('A' for Active; 'I' for Inactive)
REMARK    1  A    between atoms: C_8  and  C_11 
ROOT
ATOM      1 CL   UNL d   2      84.652  84.605  72.074  0.00  0.00     0.000 Cl
ENDROOT
TORSDOF 1
ENDMDL
MODEL 4
REMARK VINA RESULT:      -0.9     38.735     38.735
REMARK  1 active torsions:
REMARK  status: ('A' for Active; 'I' for Inactive)
REMARK    1  A    between atoms: C_8  and  C_11 
ROOT
ATOM      1 CL   UNL d   2      73.499  58.604 101.251  0.00  0.00     0.000 Cl
ENDROOT
TORSDOF 1
ENDMDL
MODEL 5
REMARK VINA RESULT:      -0.9     19.389     19.389
REMARK  1 active torsions:
REMARK  status: ('A' for Active; 'I' for Inactive)
REMARK    1  A    between atoms: C_8  and  C_11 
ROOT
ATOM      1 CL   UNL d   2      57.094  74.249  85.723  0.00  0.00     0.000 Cl
ENDROOT
TORSDOF 1
ENDMDL
MODEL 6
REMARK VINA RESULT:      -0.9     26.712     26.712
REMARK  1 active torsions:
REMARK  status: ('A' for Active; 'I' for Inactive)
REMARK    1  A    between atoms: C_8  and  C_11 
ROOT
ATOM      1 CL   UNL d   2      86.260  81.050  94.812  0.00  0.00     0.000 Cl
ENDROOT
TORSDOF 1
ENDMDL
MODEL 7
REMARK VINA RESULT:      -0.9     27.087     27.087
REMARK  1 active torsions:
REMARK  status: ('A' for Active; 'I' for Inactive)
REMARK    1  A    between atoms: C_8  and  C_11 
ROOT
ATOM      1 CL   UNL d   2      84.881  82.611  97.332  0.00  0.00     0.000 Cl
ENDROOT
TORSDOF 1
ENDMDL
MODEL 8
REMARK VINA RESULT:      -0.9     16.418     16.418
REMARK  1 active torsions:
REMARK  status: ('A' for Active; 'I' for Inactive)
REMARK    1  A    between atoms: C_8  and  C_11 
ROOT
ATOM      1 CL   UNL d   2      82.817  84.180  75.495  0.00  0.00     0.000 Cl
ENDROOT
TORSDOF 1
ENDMDL
MODEL 9
REMARK VINA RESULT:      -0.8      3.959      3.959
REMARK  1 active torsions:
REMARK  status: ('A' for Active; 'I' for Inactive)
REMARK    1  A    between atoms: C_8  and  C_11 
ROOT
ATOM      1 CL   UNL d   2      68.275  88.991  73.940  0.00  0.00     0.000 Cl
ENDROOT
TORSDOF 1
ENDMDL
MODEL 10
REMARK VINA RESULT:      -0.8     32.044     32.044
REMARK  1 active torsions:
REMARK  status: ('A' for Active; 'I' for Inactive)
REMARK    1  A    between atoms: C_8  and  C_11 
ROOT
ATOM      1 CL   UNL d   2      68.307  68.389 102.471  0.00  0.00     0.000 Cl
ENDROOT
TORSDOF 1
ENDMDL
MODEL 11
REMARK VINA RESULT:      -0.8     29.510     29.510
REMARK  1 active torsions:
REMARK  status: ('A' for Active; 'I' for Inactive)
REMARK    1  A    between atoms: C_8  and  C_11 
ROOT
ATOM      1 CL   UNL d   2      56.685  70.845  98.717  0.00  0.00     0.000 Cl
ENDROOT
TORSDOF 1
ENDMDL
MODEL 12
REMARK VINA RESULT:      -0.8     19.596     19.596
REMARK  1 active torsions:
REMARK  status: ('A' for Active; 'I' for Inactive)
REMARK    1  A    between atoms: C_8  and  C_11 
ROOT
ATOM      1 CL   UNL d   2      58.266  72.791  84.792  0.00  0.00     0.000 Cl
ENDROOT
TORSDOF 1
ENDMDL
MODEL 13
REMARK VINA RESULT:      -0.7     27.281     27.281
REMARK  1 active torsions:
REMARK  status: ('A' for Active; 'I' for Inactive)
REMARK    1  A    between atoms: C_8  and  C_11 
ROOT
ATOM      1 CL   UNL d   2      54.904  72.839  96.184  0.00  0.00     0.000 Cl
ENDROOT
TORSDOF 1
ENDMDL
MODEL 14
REMARK VINA RESULT:      -0.7     18.703     18.703
REMARK  1 active torsions:
REMARK  status: ('A' for Active; 'I' for Inactive)
REMARK    1  A    between atoms: C_8  and  C_11 
ROOT
ATOM      1 CL   UNL d   2      59.115  72.197  81.010  0.00  0.00     0.000 Cl
ENDROOT
TORSDOF 1
ENDMDL
MODEL 15
REMARK VINA RESULT:      -0.7     14.279     14.279
REMARK  1 active torsions:
REMARK  status: ('A' for Active; 'I' for Inactive)
REMARK    1  A    between atoms: C_8  and  C_11 
ROOT
ATOM      1 CL   UNL d   2      63.827  91.562  91.327  0.00  0.00     0.000 Cl
ENDROOT
TORSDOF 1
ENDMDL
MODEL 16
REMARK VINA RESULT:      -0.7     20.700     20.700
REMARK  1 active torsions:
REMARK  status: ('A' for Active; 'I' for Inactive)
REMARK    1  A    between atoms: C_8  and  C_11 
ROOT
ATOM      1 CL   UNL d   2      55.848  72.128  82.591  0.00  0.00     0.000 Cl
ENDROOT
TORSDOF 1
ENDMDL
MODEL 17
REMARK VINA RESULT:      -0.7     21.630     21.630
REMARK  1 active torsions:
REMARK  status: ('A' for Active; 'I' for Inactive)
REMARK    1  A    between atoms: C_8  and  C_11 
ROOT
ATOM      1 CL   UNL d   2      53.166  72.879  82.121  0.00  0.00     0.000 Cl
ENDROOT
TORSDOF 1
ENDMDL
MODEL 18
REMARK VINA RESULT:      -0.7     16.800     16.800
REMARK  1 active torsions:
REMARK  status: ('A' for Active; 'I' for Inactive)
REMARK    1  A    between atoms: C_8  and  C_11 
ROOT
ATOM      1 CL   UNL d   2      60.278  73.960  81.718  0.00  0.00     0.000 Cl
ENDROOT
TORSDOF 1
ENDMDL
MODEL 19
REMARK VINA RESULT:      -0.7     12.681     12.681
REMARK  1 active torsions:
REMARK  status: ('A' for Active; 'I' for Inactive)
REMARK    1  A    between atoms: C_8  and  C_11 
ROOT
ATOM      1 CL   UNL d   2      61.505  88.175  89.057  0.00  0.00     0.000 Cl
ENDROOT
TORSDOF 1
ENDMDL
MODEL 20
REMARK VINA RESULT:      -0.6     20.334     20.334
REMARK  1 active torsions:
REMARK  status: ('A' for Active; 'I' for Inactive)
REMARK    1  A    between atoms: C_8  and  C_11 
ROOT
ATOM      1 CL   UNL d   2      64.424  91.797  97.653  0.00  0.00     0.000 Cl
ENDROOT
TORSDOF 1
ENDMDL
