MODEL 1
REMARK VINA RESULT:      -8.2      0.000      0.000
REMARK  2 active torsions:
REMARK  status: ('A' for Active; 'I' for Inactive)
REMARK    1  A    between atoms: C_15  and  C_34 
REMARK    2  A    between atoms: C_27  and  C_31 
ROOT
ATOM      1  C   UNL d   1      67.830  86.436  93.608  0.00  0.00    -0.071 C 
ATOM      2  S   UNL d   1      68.984  86.478  94.839  0.00  0.00    -0.004 SA
ATOM      3  S   UNL d   1      67.893  85.677  96.387  0.00  0.00     0.001 SA
ATOM      4  C   UNL d   1      66.510  86.663  96.443  0.00  0.00    -0.034 C 
ATOM      5  C   UNL d   1      65.198  87.239  96.465  0.00  0.00     0.183 C 
ATOM      6  C   UNL d   1      64.043  86.277  96.832  0.00  0.00     0.305 C 
ATOM      7  O   UNL d   1      64.270  85.367  97.638  0.00  0.00    -0.263 OA
ATOM      8  N   UNL d   1      62.924  86.513  96.130  0.00  0.00    -0.194 NA
ATOM      9  C   UNL d   1      61.810  85.727  96.228  0.00  0.00     0.172 C 
ATOM     10  C   UNL d   1      61.618  84.785  97.111  0.00  0.00    -0.103 C 
ATOM     11  C   UNL d   1      61.282  83.620  98.104  0.00  0.00     0.083 C 
ATOM     12  C   UNL d   1      60.642  86.011  95.284  0.00  0.00     0.304 C 
ATOM     13  O   UNL d   1      59.477  85.924  95.675  0.00  0.00    -0.263 OA
ATOM     14  N   UNL d   1      61.044  86.268  94.032  0.00  0.00    -0.202 NA
ATOM     15  C   UNL d   1      60.420  87.298  93.393  0.00  0.00     0.140 C 
ATOM     16  C   UNL d   1      61.249  88.112  92.480  0.00  0.00     0.315 C 
ATOM     17  O   UNL d   1      61.006  88.252  91.283  0.00  0.00    -0.257 OA
ATOM     18  O   UNL d   1      62.265  88.682  93.186  0.00  0.00    -0.274 OA
ATOM     19  C   UNL d   1      63.376  89.049  92.414  0.00  0.00     0.249 C 
ATOM     20  C   UNL d   1      64.336  88.015  92.174  0.00  0.00    -0.047 C 
ATOM     21  C   UNL d   1      65.298  87.304  92.256  0.00  0.00    -0.073 C 
ATOM     22  C   UNL d   1      66.608  86.685  92.728  0.00  0.00     0.151 C 
ATOM     23  C   UNL d   1      63.926  90.340  92.697  0.00  0.00    -0.024 C 
ATOM     24  C   UNL d   1      64.684  91.517  93.094  0.00  0.00     0.314 C 
ATOM     25  O   UNL d   1      64.614  92.499  92.355  0.00  0.00    -0.257 OA
ATOM     26  N   UNL d   1      65.500  91.406  94.153  0.00  0.00    -0.197 NA
ATOM     27  C   UNL d   1      65.025  90.651  95.203  0.00  0.00     0.135 C 
ATOM     28  C   UNL d   1      65.776  89.395  95.633  0.00  0.00     0.297 C 
ATOM     29  O   UNL d   1      66.983  89.284  95.412  0.00  0.00    -0.264 OA
ATOM     30  N   UNL d   1      64.928  88.553  96.236  0.00  0.00    -0.194 NA
ENDROOT
BRANCH  15  31
ATOM     31  C   UNL d   1      59.004  87.560  93.445  0.00  0.00    -0.021 C 
ATOM     32  C   UNL d   1      58.422  88.903  93.913  0.00  0.00     0.028 C 
ATOM     33  C   UNL d   1      58.013  86.859  92.490  0.00  0.00     0.028 C 
ENDBRANCH  15  31
BRANCH  27  34
ATOM     34  C   UNL d   1      64.035  91.188  96.138  0.00  0.00    -0.021 C 
ATOM     35  C   UNL d   1      62.573  90.655  96.135  0.00  0.00     0.028 C 
ATOM     36  C   UNL d   1      64.371  91.661  97.570  0.00  0.00     0.028 C 
ENDBRANCH  27  34
TORSDOF 2
ENDMDL
MODEL 2
REMARK VINA RESULT:      -8.1      1.609      1.873
REMARK  2 active torsions:
REMARK  status: ('A' for Active; 'I' for Inactive)
REMARK    1  A    between atoms: C_15  and  C_34 
REMARK    2  A    between atoms: C_27  and  C_31 
ROOT
ATOM      1  C   UNL d   1      67.250  85.943  92.627  0.00  0.00    -0.071 C 
ATOM      2  S   UNL d   1      68.204  85.693  93.996  0.00  0.00    -0.004 SA
ATOM      3  S   UNL d   1      66.879  84.658  95.180  0.00  0.00     0.001 SA
ATOM      4  C   UNL d   1      65.519  85.676  95.228  0.00  0.00    -0.034 C 
ATOM      5  C   UNL d   1      64.228  86.296  95.172  0.00  0.00     0.183 C 
ATOM      6  C   UNL d   1      63.017  85.334  95.169  0.00  0.00     0.305 C 
ATOM      7  O   UNL d   1      63.105  84.276  95.804  0.00  0.00    -0.263 OA
ATOM      8  N   UNL d   1      62.020  85.751  94.373  0.00  0.00    -0.194 NA
ATOM      9  C   UNL d   1      60.892  85.012  94.150  0.00  0.00     0.172 C 
ATOM     10  C   UNL d   1      60.554  83.926  94.792  0.00  0.00    -0.103 C 
ATOM     11  C   UNL d   1      60.054  82.608  95.475  0.00  0.00     0.083 C 
ATOM     12  C   UNL d   1      59.886  85.526  93.122  0.00  0.00     0.304 C 
ATOM     13  O   UNL d   1      58.673  85.417  93.314  0.00  0.00    -0.263 OA
ATOM     14  N   UNL d   1      60.476  86.001  92.017  0.00  0.00    -0.202 NA
ATOM     15  C   UNL d   1      59.972  87.162  91.511  0.00  0.00     0.140 C 
ATOM     16  C   UNL d   1      60.943  88.099  90.907  0.00  0.00     0.315 C 
ATOM     17  O   UNL d   1      60.886  88.478  89.739  0.00  0.00    -0.257 OA
ATOM     18  O   UNL d   1      61.849  88.475  91.852  0.00  0.00    -0.274 OA
ATOM     19  C   UNL d   1      63.069  88.935  91.338  0.00  0.00     0.249 C 
ATOM     20  C   UNL d   1      64.039  87.924  91.041  0.00  0.00    -0.047 C 
ATOM     21  C   UNL d   1      64.966  87.168  91.120  0.00  0.00    -0.073 C 
ATOM     22  C   UNL d   1      66.180  86.411  91.645  0.00  0.00     0.151 C 
ATOM     23  C   UNL d   1      63.590  90.120  91.948  0.00  0.00    -0.024 C 
ATOM     24  C   UNL d   1      64.297  91.164  92.675  0.00  0.00     0.314 C 
ATOM     25  O   UNL d   1      64.355  92.271  92.143  0.00  0.00    -0.257 OA
ATOM     26  N   UNL d   1      64.942  90.813  93.799  0.00  0.00    -0.197 NA
ATOM     27  C   UNL d   1      64.301  89.891  94.598  0.00  0.00     0.135 C 
ATOM     28  C   UNL d   1      64.959  88.543  94.876  0.00  0.00     0.297 C 
ATOM     29  O   UNL d   1      66.184  88.423  94.815  0.00  0.00    -0.264 OA
ATOM     30  N   UNL d   1      64.016  87.640  95.171  0.00  0.00    -0.194 NA
ENDROOT
BRANCH  15  31
ATOM     31  C   UNL d   1      58.569  87.473  91.406  0.00  0.00    -0.021 C 
ATOM     32  C   UNL d   1      57.968  88.791  91.918  0.00  0.00     0.028 C 
ATOM     33  C   UNL d   1      57.691  86.897  90.273  0.00  0.00     0.028 C 
ENDBRANCH  15  31
BRANCH  27  34
ATOM     34  C   UNL d   1      63.189  90.281  95.467  0.00  0.00    -0.021 C 
ATOM     35  C   UNL d   1      63.414  91.276  96.640  0.00  0.00     0.028 C 
ATOM     36  C   UNL d   1      61.729  90.430  94.983  0.00  0.00     0.028 C 
ENDBRANCH  27  34
TORSDOF 2
ENDMDL
MODEL 3
REMARK VINA RESULT:      -7.7      3.525      6.635
REMARK  2 active torsions:
REMARK  status: ('A' for Active; 'I' for Inactive)
REMARK    1  A    between atoms: C_15  and  C_34 
REMARK    2  A    between atoms: C_27  and  C_31 
ROOT
ATOM      1  C   UNL d   1      59.084  86.158  94.297  0.00  0.00    -0.071 C 
ATOM      2  S   UNL d   1      58.084  86.226  92.939  0.00  0.00    -0.004 SA
ATOM      3  S   UNL d   1      59.188  85.104  91.617  0.00  0.00     0.001 SA
ATOM      4  C   UNL d   1      60.707  85.866  91.630  0.00  0.00    -0.034 C 
ATOM      5  C   UNL d   1      62.089  86.238  91.709  0.00  0.00     0.183 C 
ATOM      6  C   UNL d   1      63.109  85.083  91.577  0.00  0.00     0.305 C 
ATOM      7  O   UNL d   1      62.826  84.130  90.841  0.00  0.00    -0.263 OA
ATOM      8  N   UNL d   1      64.174  85.232  92.381  0.00  0.00    -0.194 NA
ATOM      9  C   UNL d   1      65.154  84.286  92.493  0.00  0.00     0.172 C 
ATOM     10  C   UNL d   1      65.285  83.231  91.734  0.00  0.00    -0.103 C 
ATOM     11  C   UNL d   1      65.534  81.925  90.906  0.00  0.00     0.083 C 
ATOM     12  C   UNL d   1      66.249  84.503  93.537  0.00  0.00     0.304 C 
ATOM     13  O   UNL d   1      67.420  84.203  93.297  0.00  0.00    -0.263 OA
ATOM     14  N   UNL d   1      65.766  84.956  94.701  0.00  0.00    -0.202 NA
ATOM     15  C   UNL d   1      66.476  85.950  95.307  0.00  0.00     0.140 C 
ATOM     16  C   UNL d   1      65.695  86.975  96.032  0.00  0.00     0.315 C 
ATOM     17  O   UNL d   1      65.833  87.213  97.230  0.00  0.00    -0.257 OA
ATOM     18  O   UNL d   1      64.860  87.602  95.159  0.00  0.00    -0.274 OA
ATOM     19  C   UNL d   1      63.747  88.213  95.754  0.00  0.00     0.249 C 
ATOM     20  C   UNL d   1      62.616  87.363  95.977  0.00  0.00    -0.047 C 
ATOM     21  C   UNL d   1      61.568  86.795  95.850  0.00  0.00    -0.073 C 
ATOM     22  C   UNL d   1      60.232  86.324  95.288  0.00  0.00     0.151 C 
ATOM     23  C   UNL d   1      63.439  89.529  95.284  0.00  0.00    -0.024 C 
ATOM     24  C   UNL d   1      62.921  90.752  94.688  0.00  0.00     0.314 C 
ATOM     25  O   UNL d   1      63.068  91.790  95.331  0.00  0.00    -0.257 OA
ATOM     26  N   UNL d   1      62.210  90.641  93.554  0.00  0.00    -0.197 NA
ATOM     27  C   UNL d   1      62.667  89.710  92.647  0.00  0.00     0.135 C 
ATOM     28  C   UNL d   1      61.775  88.536  92.254  0.00  0.00     0.297 C 
ATOM     29  O   UNL d   1      60.549  88.628  92.340  0.00  0.00    -0.264 OA
ATOM     30  N   UNL d   1      62.538  87.516  91.840  0.00  0.00    -0.194 NA
ENDROOT
BRANCH  15  31
ATOM     31  C   UNL d   1      67.912  85.996  95.399  0.00  0.00    -0.021 C 
ATOM     32  C   UNL d   1      68.737  87.218  94.966  0.00  0.00     0.028 C 
ATOM     33  C   UNL d   1      68.684  85.190  96.468  0.00  0.00     0.028 C 
ENDBRANCH  15  31
BRANCH  27  34
ATOM     34  C   UNL d   1      63.820  89.986  91.788  0.00  0.00    -0.021 C 
ATOM     35  C   UNL d   1      63.995  91.383  91.126  0.00  0.00     0.028 C 
ATOM     36  C   UNL d   1      65.223  89.378  92.008  0.00  0.00     0.028 C 
ENDBRANCH  27  34
TORSDOF 2
ENDMDL
MODEL 4
REMARK VINA RESULT:      -7.4     18.281     22.087
REMARK  2 active torsions:
REMARK  status: ('A' for Active; 'I' for Inactive)
REMARK    1  A    between atoms: C_15  and  C_34 
REMARK    2  A    between atoms: C_27  and  C_31 
ROOT
ATOM      1  C   UNL d   1      83.974  73.580  97.823  0.00  0.00    -0.071 C 
ATOM      2  S   UNL d   1      84.969  72.618  96.858  0.00  0.00    -0.004 SA
ATOM      3  S   UNL d   1      86.010  74.072  95.844  0.00  0.00     0.001 SA
ATOM      4  C   UNL d   1      84.782  75.029  95.163  0.00  0.00    -0.034 C 
ATOM      5  C   UNL d   1      83.884  76.058  94.727  0.00  0.00     0.183 C 
ATOM      6  C   UNL d   1      84.428  77.504  94.798  0.00  0.00     0.305 C 
ATOM      7  O   UNL d   1      85.634  77.690  94.596  0.00  0.00    -0.263 OA
ATOM      8  N   UNL d   1      83.496  78.395  95.172  0.00  0.00    -0.194 NA
ATOM      9  C   UNL d   1      83.778  79.715  95.388  0.00  0.00     0.172 C 
ATOM     10  C   UNL d   1      84.903  80.310  95.097  0.00  0.00    -0.103 C 
ATOM     11  C   UNL d   1      86.209  81.128  94.815  0.00  0.00     0.083 C 
ATOM     12  C   UNL d   1      82.668  80.608  95.939  0.00  0.00     0.304 C 
ATOM     13  O   UNL d   1      82.531  81.766  95.541  0.00  0.00    -0.263 OA
ATOM     14  N   UNL d   1      81.967  80.015  96.915  0.00  0.00    -0.202 NA
ATOM     15  C   UNL d   1      80.614  80.176  96.875  0.00  0.00     0.140 C 
ATOM     16  C   UNL d   1      79.795  79.026  97.316  0.00  0.00     0.315 C 
ATOM     17  O   UNL d   1      78.991  79.081  98.244  0.00  0.00    -0.257 OA
ATOM     18  O   UNL d   1      80.059  77.957  96.516  0.00  0.00    -0.274 OA
ATOM     19  C   UNL d   1      79.762  76.713  97.091  0.00  0.00     0.249 C 
ATOM     20  C   UNL d   1      80.788  76.148  97.915  0.00  0.00    -0.047 C 
ATOM     21  C   UNL d   1      81.724  75.503  98.298  0.00  0.00    -0.073 C 
ATOM     22  C   UNL d   1      82.906  74.543  98.334  0.00  0.00     0.151 C 
ATOM     23  C   UNL d   1      79.081  75.785  96.240  0.00  0.00    -0.024 C 
ATOM     24  C   UNL d   1      78.619  74.714  95.369  0.00  0.00     0.314 C 
ATOM     25  O   UNL d   1      77.446  74.365  95.491  0.00  0.00    -0.257 OA
ATOM     26  N   UNL d   1      79.530  74.101  94.597  0.00  0.00    -0.197 NA
ATOM     27  C   UNL d   1      80.495  74.914  94.043  0.00  0.00     0.135 C 
ATOM     28  C   UNL d   1      81.964  74.690  94.389  0.00  0.00     0.297 C 
ATOM     29  O   UNL d   1      82.357  73.578  94.747  0.00  0.00    -0.264 OA
ATOM     30  N   UNL d   1      82.640  75.834  94.225  0.00  0.00    -0.194 NA
ENDROOT
BRANCH  15  31
ATOM     31  C   UNL d   1      79.942  81.412  96.565  0.00  0.00    -0.021 C 
ATOM     32  C   UNL d   1      78.776  81.499  95.569  0.00  0.00     0.028 C 
ATOM     33  C   UNL d   1      79.850  82.566  97.588  0.00  0.00     0.028 C 
ENDBRANCH  15  31
BRANCH  27  34
ATOM     34  C   UNL d   1      80.205  75.751  92.877  0.00  0.00    -0.021 C 
ATOM     35  C   UNL d   1      79.693  75.114  91.554  0.00  0.00     0.028 C 
ATOM     36  C   UNL d   1      79.647  77.189  92.967  0.00  0.00     0.028 C 
ENDBRANCH  27  34
TORSDOF 2
ENDMDL
MODEL 5
REMARK VINA RESULT:      -7.3     15.306     18.932
REMARK  2 active torsions:
REMARK  status: ('A' for Active; 'I' for Inactive)
REMARK    1  A    between atoms: C_15  and  C_34 
REMARK    2  A    between atoms: C_27  and  C_31 
ROOT
ATOM      1  C   UNL d   1      83.033  80.892  95.447  0.00  0.00    -0.071 C 
ATOM      2  S   UNL d   1      84.467  80.088  95.826  0.00  0.00    -0.004 SA
ATOM      3  S   UNL d   1      84.327  78.475  94.559  0.00  0.00     0.001 SA
ATOM      4  C   UNL d   1      82.814  77.805  94.943  0.00  0.00    -0.034 C 
ATOM      5  C   UNL d   1      81.485  77.271  94.978  0.00  0.00     0.183 C 
ATOM      6  C   UNL d   1      80.921  76.771  93.626  0.00  0.00     0.305 C 
ATOM      7  O   UNL d   1      81.706  76.271  92.811  0.00  0.00    -0.263 OA
ATOM      8  N   UNL d   1      79.614  77.037  93.475  0.00  0.00    -0.194 NA
ATOM      9  C   UNL d   1      78.932  76.766  92.322  0.00  0.00     0.172 C 
ATOM     10  C   UNL d   1      79.388  76.074  91.313  0.00  0.00    -0.103 C 
ATOM     11  C   UNL d   1      79.830  75.281  90.036  0.00  0.00     0.083 C 
ATOM     12  C   UNL d   1      77.481  77.233  92.216  0.00  0.00     0.304 C 
ATOM     13  O   UNL d   1      76.630  76.532  91.666  0.00  0.00    -0.263 OA
ATOM     14  N   UNL d   1      77.302  78.469  92.699  0.00  0.00    -0.202 NA
ATOM     15  C   UNL d   1      76.191  78.668  93.463  0.00  0.00     0.140 C 
ATOM     16  C   UNL d   1      76.324  79.608  94.596  0.00  0.00     0.315 C 
ATOM     17  O   UNL d   1      75.639  80.620  94.724  0.00  0.00    -0.257 OA
ATOM     18  O   UNL d   1      77.277  79.144  95.451  0.00  0.00    -0.274 OA
ATOM     19  C   UNL d   1      77.853  80.127  96.268  0.00  0.00     0.249 C 
ATOM     20  C   UNL d   1      78.948  80.850  95.694  0.00  0.00    -0.047 C 
ATOM     21  C   UNL d   1      80.052  81.208  95.394  0.00  0.00    -0.073 C 
ATOM     22  C   UNL d   1      81.570  81.291  95.281  0.00  0.00     0.151 C 
ATOM     23  C   UNL d   1      78.012  79.771  97.646  0.00  0.00    -0.024 C 
ATOM     24  C   UNL d   1      78.429  79.396  98.988  0.00  0.00     0.314 C 
ATOM     25  O   UNL d   1      77.783  79.866  99.924  0.00  0.00    -0.257 OA
ATOM     26  N   UNL d   1      79.557  78.680  99.114  0.00  0.00    -0.197 NA
ATOM     27  C   UNL d   1      79.763  77.709  98.157  0.00  0.00     0.135 C 
ATOM     28  C   UNL d   1      80.986  77.789  97.249  0.00  0.00     0.297 C 
ATOM     29  O   UNL d   1      82.000  78.384  97.619  0.00  0.00    -0.264 OA
ATOM     30  N   UNL d   1      80.735  77.138  96.106  0.00  0.00    -0.194 NA
ENDROOT
BRANCH  15  31
ATOM     31  C   UNL d   1      74.885  78.138  93.167  0.00  0.00    -0.021 C 
ATOM     32  C   UNL d   1      74.138  77.186  94.114  0.00  0.00     0.028 C 
ATOM     33  C   UNL d   1      73.875  78.908  92.288  0.00  0.00     0.028 C 
ENDBRANCH  15  31
BRANCH  27  34
ATOM     34  C   UNL d   1      79.054  76.429  98.208  0.00  0.00    -0.021 C 
ATOM     35  C   UNL d   1      78.007  76.062  97.118  0.00  0.00     0.028 C 
ATOM     36  C   UNL d   1      79.679  75.119  98.737  0.00  0.00     0.028 C 
ENDBRANCH  27  34
TORSDOF 2
ENDMDL
MODEL 6
REMARK VINA RESULT:      -7.2     14.852     17.445
REMARK  2 active torsions:
REMARK  status: ('A' for Active; 'I' for Inactive)
REMARK    1  A    between atoms: C_15  and  C_34 
REMARK    2  A    between atoms: C_27  and  C_31 
ROOT
ATOM      1  C   UNL d   1      66.908  74.315  97.246  0.00  0.00    -0.071 C 
ATOM      2  S   UNL d   1      65.645  73.296  96.786  0.00  0.00    -0.004 SA
ATOM      3  S   UNL d   1      64.319  73.644  98.318  0.00  0.00     0.001 SA
ATOM      4  C   UNL d   1      65.240  73.331  99.712  0.00  0.00    -0.034 C 
ATOM      5  C   UNL d   1      65.934  73.341 100.965  0.00  0.00     0.183 C 
ATOM      6  C   UNL d   1      65.445  74.381 102.001  0.00  0.00     0.305 C 
ATOM      7  O   UNL d   1      64.242  74.667 102.024  0.00  0.00    -0.263 OA
ATOM      8  N   UNL d   1      66.448  74.922 102.711  0.00  0.00    -0.194 NA
ATOM      9  C   UNL d   1      66.254  75.927 103.616  0.00  0.00     0.172 C 
ATOM     10  C   UNL d   1      65.096  76.360 104.038  0.00  0.00    -0.103 C 
ATOM     11  C   UNL d   1      63.771  76.977 104.601  0.00  0.00     0.083 C 
ATOM     12  C   UNL d   1      67.484  76.558 104.267  0.00  0.00     0.304 C 
ATOM     13  O   UNL d   1      67.475  76.882 105.456  0.00  0.00    -0.263 OA
ATOM     14  N   UNL d   1      68.476  76.770 103.392  0.00  0.00    -0.202 NA
ATOM     15  C   UNL d   1      69.735  76.457 103.813  0.00  0.00     0.140 C 
ATOM     16  C   UNL d   1      70.656  75.906 102.797  0.00  0.00     0.315 C 
ATOM     17  O   UNL d   1      71.728  76.427 102.498  0.00  0.00    -0.257 OA
ATOM     18  O   UNL d   1      70.136  74.748 102.304  0.00  0.00    -0.274 OA
ATOM     19  C   UNL d   1      70.614  74.390 101.035  0.00  0.00     0.249 C 
ATOM     20  C   UNL d   1      69.931  74.981  99.924  0.00  0.00    -0.047 C 
ATOM     21  C   UNL d   1      69.183  75.164  99.005  0.00  0.00    -0.073 C 
ATOM     22  C   UNL d   1      68.085  74.966  97.967  0.00  0.00     0.151 C 
ATOM     23  C   UNL d   1      70.965  73.012 100.873  0.00  0.00    -0.024 C 
ATOM     24  C   UNL d   1      71.104  71.597 100.561  0.00  0.00     0.314 C 
ATOM     25  O   UNL d   1      72.249  71.164 100.441  0.00  0.00    -0.257 OA
ATOM     26  N   UNL d   1      69.985  70.903 100.298  0.00  0.00    -0.197 NA
ATOM     27  C   UNL d   1      68.889  71.214 101.072  0.00  0.00     0.135 C 
ATOM     28  C   UNL d   1      67.626  71.758 100.411  0.00  0.00     0.297 C 
ATOM     29  O   UNL d   1      67.380  71.502  99.231  0.00  0.00    -0.264 OA
ATOM     30  N   UNL d   1      66.933  72.480 101.301  0.00  0.00    -0.194 NA
ENDROOT
BRANCH  15  31
ATOM     31  C   UNL d   1      70.259  76.745 105.123  0.00  0.00    -0.021 C 
ATOM     32  C   UNL d   1      70.854  75.664 106.039  0.00  0.00     0.028 C 
ATOM     33  C   UNL d   1      70.863  78.124 105.472  0.00  0.00     0.028 C 
ENDBRANCH  15  31
BRANCH  27  34
ATOM     34  C   UNL d   1      68.762  70.720 102.444  0.00  0.00    -0.021 C 
ATOM     35  C   UNL d   1      69.051  69.229 102.778  0.00  0.00     0.028 C 
ATOM     36  C   UNL d   1      69.086  71.566 103.696  0.00  0.00     0.028 C 
ENDBRANCH  27  34
TORSDOF 2
ENDMDL
MODEL 7
REMARK VINA RESULT:      -6.9      3.212      6.840
REMARK  2 active torsions:
REMARK  status: ('A' for Active; 'I' for Inactive)
REMARK    1  A    between atoms: C_15  and  C_34 
REMARK    2  A    between atoms: C_27  and  C_31 
ROOT
ATOM      1  C   UNL d   1      63.376  91.026  93.280  0.00  0.00    -0.071 C 
ATOM      2  S   UNL d   1      62.215  91.539  94.391  0.00  0.00    -0.004 SA
ATOM      3  S   UNL d   1      63.176  91.095  96.154  0.00  0.00     0.001 SA
ATOM      4  C   UNL d   1      63.564  89.449  95.984  0.00  0.00    -0.034 C 
ATOM      5  C   UNL d   1      64.167  88.152  95.897  0.00  0.00     0.183 C 
ATOM      6  C   UNL d   1      65.547  88.001  96.581  0.00  0.00     0.305 C 
ATOM      7  O   UNL d   1      65.770  88.656  97.607  0.00  0.00    -0.263 OA
ATOM      8  N   UNL d   1      66.387  87.211  95.894  0.00  0.00    -0.194 NA
ATOM      9  C   UNL d   1      67.687  87.012  96.266  0.00  0.00     0.172 C 
ATOM     10  C   UNL d   1      68.223  87.395  97.394  0.00  0.00    -0.103 C 
ATOM     11  C   UNL d   1      68.981  87.822  98.697  0.00  0.00     0.083 C 
ATOM     12  C   UNL d   1      68.587  86.201  95.336  0.00  0.00     0.304 C 
ATOM     13  O   UNL d   1      69.416  85.410  95.788  0.00  0.00    -0.263 OA
ATOM     14  N   UNL d   1      68.413  86.519  94.046  0.00  0.00    -0.202 NA
ATOM     15  C   UNL d   1      68.370  85.480  93.165  0.00  0.00     0.140 C 
ATOM     16  C   UNL d   1      67.450  85.622  92.016  0.00  0.00     0.315 C 
ATOM     17  O   UNL d   1      67.815  85.582  90.844  0.00  0.00    -0.257 OA
ATOM     18  O   UNL d   1      66.177  85.762  92.479  0.00  0.00    -0.274 OA
ATOM     19  C   UNL d   1      65.298  86.386  91.583  0.00  0.00     0.249 C 
ATOM     20  C   UNL d   1      65.295  87.818  91.611  0.00  0.00    -0.047 C 
ATOM     21  C   UNL d   1      65.012  88.958  91.852  0.00  0.00    -0.073 C 
ATOM     22  C   UNL d   1      64.325  90.193  92.423  0.00  0.00     0.151 C 
ATOM     23  C   UNL d   1      64.010  85.775  91.453  0.00  0.00    -0.024 C 
ATOM     24  C   UNL d   1      62.614  85.363  91.454  0.00  0.00     0.314 C 
ATOM     25  O   UNL d   1      62.215  84.749  90.466  0.00  0.00    -0.257 OA
ATOM     26  N   UNL d   1      61.838  85.792  92.461  0.00  0.00    -0.197 NA
ATOM     27  C   UNL d   1      62.428  85.820  93.706  0.00  0.00     0.135 C 
ATOM     28  C   UNL d   1      62.567  87.146  94.448  0.00  0.00     0.297 C 
ATOM     29  O   UNL d   1      61.793  88.076  94.213  0.00  0.00    -0.264 OA
ATOM     30  N   UNL d   1      63.590  87.069  95.309  0.00  0.00    -0.194 NA
ENDROOT
BRANCH  15  31
ATOM     31  C   UNL d   1      69.242  84.334  93.202  0.00  0.00    -0.021 C 
ATOM     32  C   UNL d   1      68.723  82.890  93.120  0.00  0.00     0.028 C 
ATOM     33  C   UNL d   1      70.697  84.402  92.689  0.00  0.00     0.028 C 
ENDBRANCH  15  31
BRANCH  27  34
ATOM     34  C   UNL d   1      62.609  84.597  94.489  0.00  0.00    -0.021 C 
ATOM     35  C   UNL d   1      61.393  83.691  94.832  0.00  0.00     0.028 C 
ATOM     36  C   UNL d   1      63.869  83.705  94.414  0.00  0.00     0.028 C 
ENDBRANCH  27  34
TORSDOF 2
ENDMDL
MODEL 8
REMARK VINA RESULT:      -6.9      3.613      6.669
REMARK  2 active torsions:
REMARK  status: ('A' for Active; 'I' for Inactive)
REMARK    1  A    between atoms: C_15  and  C_34 
REMARK    2  A    between atoms: C_27  and  C_31 
ROOT
ATOM      1  C   UNL d   1      60.396  85.986  96.580  0.00  0.00    -0.071 C 
ATOM      2  S   UNL d   1      58.883  85.529  95.989  0.00  0.00    -0.004 SA
ATOM      3  S   UNL d   1      59.406  83.872  94.891  0.00  0.00     0.001 SA
ATOM      4  C   UNL d   1      60.617  84.455  93.852  0.00  0.00    -0.034 C 
ATOM      5  C   UNL d   1      61.800  84.728  93.090  0.00  0.00     0.183 C 
ATOM      6  C   UNL d   1      62.808  83.561  92.966  0.00  0.00     0.305 C 
ATOM      7  O   UNL d   1      62.368  82.406  92.926  0.00  0.00    -0.263 OA
ATOM      8  N   UNL d   1      64.087  83.969  93.009  0.00  0.00    -0.194 NA
ATOM      9  C   UNL d   1      65.141  83.099  93.008  0.00  0.00     0.172 C 
ATOM     10  C   UNL d   1      65.067  81.813  92.790  0.00  0.00    -0.103 C 
ATOM     11  C   UNL d   1      65.103  80.263  92.566  0.00  0.00     0.083 C 
ATOM     12  C   UNL d   1      66.546  83.669  93.194  0.00  0.00     0.304 C 
ATOM     13  O   UNL d   1      67.502  83.214  92.564  0.00  0.00    -0.263 OA
ATOM     14  N   UNL d   1      66.596  84.614  94.142  0.00  0.00    -0.202 NA
ATOM     15  C   UNL d   1      67.340  85.720  93.858  0.00  0.00     0.140 C 
ATOM     16  C   UNL d   1      66.837  87.010  94.378  0.00  0.00     0.315 C 
ATOM     17  O   UNL d   1      67.477  87.733  95.138  0.00  0.00    -0.257 OA
ATOM     18  O   UNL d   1      65.605  87.253  93.851  0.00  0.00    -0.274 OA
ATOM     19  C   UNL d   1      64.817  88.138  94.600  0.00  0.00     0.249 C 
ATOM     20  C   UNL d   1      64.067  87.550  95.669  0.00  0.00    -0.047 C 
ATOM     21  C   UNL d   1      63.183  87.058  96.313  0.00  0.00    -0.073 C 
ATOM     22  C   UNL d   1      61.831  86.484  96.720  0.00  0.00     0.151 C 
ATOM     23  C   UNL d   1      64.124  89.139  93.847  0.00  0.00    -0.024 C 
ATOM     24  C   UNL d   1      63.205  90.016  93.137  0.00  0.00     0.314 C 
ATOM     25  O   UNL d   1      63.470  91.217  93.137  0.00  0.00    -0.257 OA
ATOM     26  N   UNL d   1      62.076  89.475  92.652  0.00  0.00    -0.197 NA
ATOM     27  C   UNL d   1      62.197  88.213  92.112  0.00  0.00     0.135 C 
ATOM     28  C   UNL d   1      61.421  87.051  92.722  0.00  0.00     0.297 C 
ATOM     29  O   UNL d   1      60.378  87.256  93.345  0.00  0.00    -0.264 OA
ATOM     30  N   UNL d   1      62.053  85.902  92.450  0.00  0.00    -0.194 NA
ENDROOT
BRANCH  15  31
ATOM     31  C   UNL d   1      68.628  85.701  93.214  0.00  0.00    -0.021 C 
ATOM     32  C   UNL d   1      68.968  86.585  92.004  0.00  0.00     0.028 C 
ATOM     33  C   UNL d   1      69.918  85.344  93.986  0.00  0.00     0.028 C 
ENDBRANCH  15  31
BRANCH  27  34
ATOM     34  C   UNL d   1      62.760  88.010  90.775  0.00  0.00    -0.021 C 
ATOM     35  C   UNL d   1      61.958  88.425  89.509  0.00  0.00     0.028 C 
ATOM     36  C   UNL d   1      64.266  88.120  90.450  0.00  0.00     0.028 C 
ENDBRANCH  27  34
TORSDOF 2
ENDMDL
MODEL 9
REMARK VINA RESULT:      -6.7     21.050     24.401
REMARK  2 active torsions:
REMARK  status: ('A' for Active; 'I' for Inactive)
REMARK    1  A    between atoms: C_15  and  C_34 
REMARK    2  A    between atoms: C_27  and  C_31 
ROOT
ATOM      1  C   UNL d   1      82.163  66.904  92.553  0.00  0.00    -0.071 C 
ATOM      2  S   UNL d   1      82.090  65.220  92.454  0.00  0.00    -0.004 SA
ATOM      3  S   UNL d   1      80.764  65.003  90.899  0.00  0.00     0.001 SA
ATOM      4  C   UNL d   1      79.419  65.914  91.400  0.00  0.00    -0.034 C 
ATOM      5  C   UNL d   1      78.322  66.821  91.564  0.00  0.00     0.183 C 
ATOM      6  C   UNL d   1      77.779  67.467  90.267  0.00  0.00     0.305 C 
ATOM      7  O   UNL d   1      77.808  66.803  89.223  0.00  0.00    -0.263 OA
ATOM      8  N   UNL d   1      77.414  68.748  90.434  0.00  0.00    -0.194 NA
ATOM      9  C   UNL d   1      76.992  69.538  89.402  0.00  0.00     0.172 C 
ATOM     10  C   UNL d   1      76.720  69.128  88.192  0.00  0.00    -0.103 C 
ATOM     11  C   UNL d   1      76.385  68.762  86.706  0.00  0.00     0.083 C 
ATOM     12  C   UNL d   1      76.729  71.016  89.686  0.00  0.00     0.304 C 
ATOM     13  O   UNL d   1      75.780  71.602  89.162  0.00  0.00    -0.263 OA
ATOM     14  N   UNL d   1      77.669  71.564  90.467  0.00  0.00    -0.202 NA
ATOM     15  C   UNL d   1      77.229  72.395  91.454  0.00  0.00     0.140 C 
ATOM     16  C   UNL d   1      77.980  72.368  92.728  0.00  0.00     0.315 C 
ATOM     17  O   UNL d   1      78.528  73.355  93.215  0.00  0.00    -0.257 OA
ATOM     18  O   UNL d   1      77.923  71.113  93.254  0.00  0.00    -0.274 OA
ATOM     19  C   UNL d   1      78.957  70.811  94.150  0.00  0.00     0.249 C 
ATOM     20  C   UNL d   1      80.172  70.335  93.560  0.00  0.00    -0.047 C 
ATOM     21  C   UNL d   1      81.041  69.620  93.146  0.00  0.00    -0.073 C 
ATOM     22  C   UNL d   1      81.841  68.379  92.767  0.00  0.00     0.151 C 
ATOM     23  C   UNL d   1      78.559  70.142  95.352  0.00  0.00    -0.024 C 
ATOM     24  C   UNL d   1      78.269  69.252  96.465  0.00  0.00     0.314 C 
ATOM     25  O   UNL d   1      78.266  69.750  97.590  0.00  0.00    -0.257 OA
ATOM     26  N   UNL d   1      78.160  67.940  96.203  0.00  0.00    -0.197 NA
ATOM     27  C   UNL d   1      77.521  67.613  95.027  0.00  0.00     0.135 C 
ATOM     28  C   UNL d   1      78.273  66.845  93.945  0.00  0.00     0.297 C 
ATOM     29  O   UNL d   1      79.227  66.123  94.242  0.00  0.00    -0.264 OA
ATOM     30  N   UNL d   1      77.720  67.099  92.752  0.00  0.00    -0.194 NA
ENDROOT
BRANCH  15  31
ATOM     31  C   UNL d   1      76.185  73.375  91.299  0.00  0.00    -0.021 C 
ATOM     32  C   UNL d   1      75.026  73.522  92.297  0.00  0.00     0.028 C 
ATOM     33  C   UNL d   1      76.431  74.717  90.574  0.00  0.00     0.028 C 
ENDBRANCH  15  31
BRANCH  27  34
ATOM     34  C   UNL d   1      76.062  67.663  94.915  0.00  0.00    -0.021 C 
ATOM     35  C   UNL d   1      75.162  67.188  96.091  0.00  0.00     0.028 C 
ATOM     36  C   UNL d   1      75.296  68.753  94.132  0.00  0.00     0.028 C 
ENDBRANCH  27  34
TORSDOF 2
ENDMDL
MODEL 10
REMARK VINA RESULT:      -6.6     11.143     14.308
REMARK  2 active torsions:
REMARK  status: ('A' for Active; 'I' for Inactive)
REMARK    1  A    between atoms: C_15  and  C_34 
REMARK    2  A    between atoms: C_27  and  C_31 
ROOT
ATOM      1  C   UNL d   1      64.869  73.115  97.280  0.00  0.00    -0.071 C 
ATOM      2  S   UNL d   1      65.342  71.497  97.365  0.00  0.00    -0.004 SA
ATOM      3  S   UNL d   1      67.194  71.612  96.479  0.00  0.00     0.001 SA
ATOM      4  C   UNL d   1      66.869  72.356  94.986  0.00  0.00    -0.034 C 
ATOM      5  C   UNL d   1      66.799  73.179  93.815  0.00  0.00     0.183 C 
ATOM      6  C   UNL d   1      68.022  74.091  93.555  0.00  0.00     0.305 C 
ATOM      7  O   UNL d   1      69.141  73.683  93.889  0.00  0.00    -0.263 OA
ATOM      8  N   UNL d   1      67.682  75.292  93.061  0.00  0.00    -0.194 NA
ATOM      9  C   UNL d   1      68.593  76.287  92.844  0.00  0.00     0.172 C 
ATOM     10  C   UNL d   1      69.891  76.158  92.908  0.00  0.00    -0.103 C 
ATOM     11  C   UNL d   1      71.456  76.132  92.975  0.00  0.00     0.083 C 
ATOM     12  C   UNL d   1      68.075  77.656  92.405  0.00  0.00     0.304 C 
ATOM     13  O   UNL d   1      68.685  78.325  91.570  0.00  0.00    -0.263 OA
ATOM     14  N   UNL d   1      66.981  78.032  93.080  0.00  0.00    -0.202 NA
ATOM     15  C   UNL d   1      65.984  78.607  92.350  0.00  0.00     0.140 C 
ATOM     16  C   UNL d   1      64.598  78.307  92.768  0.00  0.00     0.315 C 
ATOM     17  O   UNL d   1      63.787  79.168  93.101  0.00  0.00    -0.257 OA
ATOM     18  O   UNL d   1      64.386  76.964  92.682  0.00  0.00    -0.274 OA
ATOM     19  C   UNL d   1      63.342  76.488  93.487  0.00  0.00     0.249 C 
ATOM     20  C   UNL d   1      63.690  76.185  94.842  0.00  0.00    -0.047 C 
ATOM     21  C   UNL d   1      64.013  75.601  95.839  0.00  0.00    -0.073 C 
ATOM     22  C   UNL d   1      64.432  74.496  96.802  0.00  0.00     0.151 C 
ATOM     23  C   UNL d   1      62.454  75.555  92.861  0.00  0.00    -0.024 C 
ATOM     24  C   UNL d   1      61.669  74.428  92.379  0.00  0.00     0.314 C 
ATOM     25  O   UNL d   1      60.503  74.658  92.062  0.00  0.00    -0.257 OA
ATOM     26  N   UNL d   1      62.226  73.208  92.439  0.00  0.00    -0.197 NA
ATOM     27  C   UNL d   1      63.569  73.144  92.134  0.00  0.00     0.135 C 
ATOM     28  C   UNL d   1      64.561  72.658  93.185  0.00  0.00     0.297 C 
ATOM     29  O   UNL d   1      64.193  71.909  94.091  0.00  0.00    -0.264 OA
ATOM     30  N   UNL d   1      65.773  73.165  92.921  0.00  0.00    -0.194 NA
ENDROOT
BRANCH  15  31
ATOM     31  C   UNL d   1      66.186  79.574  91.302  0.00  0.00    -0.021 C 
ATOM     32  C   UNL d   1      65.704  79.354  89.860  0.00  0.00     0.028 C 
ATOM     33  C   UNL d   1      66.284  81.087  91.600  0.00  0.00     0.028 C 
ENDBRANCH  15  31
BRANCH  27  34
ATOM     34  C   UNL d   1      64.035  73.188  90.747  0.00  0.00    -0.021 C 
ATOM     35  C   UNL d   1      63.420  72.244  89.675  0.00  0.00     0.028 C 
ATOM     36  C   UNL d   1      64.509  74.477  90.038  0.00  0.00     0.028 C 
ENDBRANCH  27  34
TORSDOF 2
ENDMDL
MODEL 11
REMARK VINA RESULT:      -6.4     22.178     25.841
REMARK  2 active torsions:
REMARK  status: ('A' for Active; 'I' for Inactive)
REMARK    1  A    between atoms: C_15  and  C_34 
REMARK    2  A    between atoms: C_27  and  C_31 
ROOT
ATOM      1  C   UNL d   1      77.750  70.534  88.586  0.00  0.00    -0.071 C 
ATOM      2  S   UNL d   1      76.199  70.159  88.038  0.00  0.00    -0.004 SA
ATOM      3  S   UNL d   1      75.126  70.423  89.771  0.00  0.00     0.001 SA
ATOM      4  C   UNL d   1      75.930  69.424  90.886  0.00  0.00    -0.034 C 
ATOM      5  C   UNL d   1      76.628  68.829  91.987  0.00  0.00     0.183 C 
ATOM      6  C   UNL d   1      76.561  69.600  93.327  0.00  0.00     0.305 C 
ATOM      7  O   UNL d   1      75.531  70.231  93.590  0.00  0.00    -0.263 OA
ATOM      8  N   UNL d   1      77.712  69.552  94.015  0.00  0.00    -0.194 NA
ATOM      9  C   UNL d   1      77.906  70.239  95.181  0.00  0.00     0.172 C 
ATOM     10  C   UNL d   1      76.982  70.864  95.859  0.00  0.00    -0.103 C 
ATOM     11  C   UNL d   1      75.968  71.665  96.745  0.00  0.00     0.083 C 
ATOM     12  C   UNL d   1      79.299  70.216  95.808  0.00  0.00     0.304 C 
ATOM     13  O   UNL d   1      79.443  70.146  97.029  0.00  0.00    -0.263 OA
ATOM     14  N   UNL d   1      80.274  70.361  94.900  0.00  0.00    -0.202 NA
ATOM     15  C   UNL d   1      81.362  69.552  95.043  0.00  0.00     0.140 C 
ATOM     16  C   UNL d   1      82.004  69.077  93.798  0.00  0.00     0.315 C 
ATOM     17  O   UNL d   1      83.178  69.297  93.512  0.00  0.00    -0.257 OA
ATOM     18  O   UNL d   1      81.102  68.353  93.080  0.00  0.00    -0.274 OA
ATOM     19  C   UNL d   1      81.384  68.268  91.709  0.00  0.00     0.249 C 
ATOM     20  C   UNL d   1      80.908  69.356  90.908  0.00  0.00    -0.047 C 
ATOM     21  C   UNL d   1      80.236  70.038  90.186  0.00  0.00    -0.073 C 
ATOM     22  C   UNL d   1      79.102  70.526  89.293  0.00  0.00     0.151 C 
ATOM     23  C   UNL d   1      81.236  66.970  91.126  0.00  0.00    -0.024 C 
ATOM     24  C   UNL d   1      80.871  65.751  90.419  0.00  0.00     0.314 C 
ATOM     25  O   UNL d   1      81.794  65.036  90.030  0.00  0.00    -0.257 OA
ATOM     26  N   UNL d   1      79.574  65.563  90.128  0.00  0.00    -0.197 NA
ATOM     27  C   UNL d   1      78.678  65.952  91.099  0.00  0.00     0.135 C 
ATOM     28  C   UNL d   1      77.656  67.043  90.792  0.00  0.00     0.297 C 
ATOM     29  O   UNL d   1      77.296  67.251  89.633  0.00  0.00    -0.264 OA
ATOM     30  N   UNL d   1      77.283  67.637  91.933  0.00  0.00    -0.194 NA
ENDROOT
BRANCH  15  31
ATOM     31  C   UNL d   1      81.998  69.244  96.298  0.00  0.00    -0.021 C 
ATOM     32  C   UNL d   1      82.290  67.806  96.753  0.00  0.00     0.028 C 
ATOM     33  C   UNL d   1      82.988  70.222  96.970  0.00  0.00     0.028 C 
ENDBRANCH  15  31
BRANCH  27  34
ATOM     34  C   UNL d   1      78.437  65.129  92.286  0.00  0.00    -0.021 C 
ATOM     35  C   UNL d   1      78.201  63.598  92.150  0.00  0.00     0.028 C 
ATOM     36  C   UNL d   1      79.080  65.397  93.665  0.00  0.00     0.028 C 
ENDBRANCH  27  34
TORSDOF 2
ENDMDL
MODEL 12
REMARK VINA RESULT:      -6.4      3.144      3.819
REMARK  2 active torsions:
REMARK  status: ('A' for Active; 'I' for Inactive)
REMARK    1  A    between atoms: C_15  and  C_34 
REMARK    2  A    between atoms: C_27  and  C_31 
ROOT
ATOM      1  C   UNL d   1      67.177  85.684  92.609  0.00  0.00    -0.071 C 
ATOM      2  S   UNL d   1      67.919  85.097  94.006  0.00  0.00    -0.004 SA
ATOM      3  S   UNL d   1      66.763  83.434  94.361  0.00  0.00     0.001 SA
ATOM      4  C   UNL d   1      65.182  84.057  94.399  0.00  0.00    -0.034 C 
ATOM      5  C   UNL d   1      63.797  84.379  94.222  0.00  0.00     0.183 C 
ATOM      6  C   UNL d   1      62.926  83.282  93.565  0.00  0.00     0.305 C 
ATOM      7  O   UNL d   1      63.203  82.098  93.792  0.00  0.00    -0.263 OA
ATOM      8  N   UNL d   1      62.000  83.780  92.731  0.00  0.00    -0.194 NA
ATOM      9  C   UNL d   1      61.183  82.987  91.975  0.00  0.00     0.172 C 
ATOM     10  C   UNL d   1      61.063  81.692  92.086  0.00  0.00    -0.103 C 
ATOM     11  C   UNL d   1      60.850  80.140  92.109  0.00  0.00     0.083 C 
ATOM     12  C   UNL d   1      60.259  83.663  90.962  0.00  0.00     0.304 C 
ATOM     13  O   UNL d   1      59.113  83.250  90.777  0.00  0.00    -0.263 OA
ATOM     14  N   UNL d   1      60.867  84.649  90.290  0.00  0.00    -0.202 NA
ATOM     15  C   UNL d   1      60.147  85.792  90.105  0.00  0.00     0.140 C 
ATOM     16  C   UNL d   1      60.900  87.064  90.144  0.00  0.00     0.315 C 
ATOM     17  O   UNL d   1      60.934  87.862  89.211  0.00  0.00    -0.257 OA
ATOM     18  O   UNL d   1      61.489  87.197  91.365  0.00  0.00    -0.274 OA
ATOM     19  C   UNL d   1      62.598  88.055  91.385  0.00  0.00     0.249 C 
ATOM     20  C   UNL d   1      63.850  87.462  91.022  0.00  0.00    -0.047 C 
ATOM     21  C   UNL d   1      64.926  86.937  91.075  0.00  0.00    -0.073 C 
ATOM     22  C   UNL d   1      66.199  86.288  91.606  0.00  0.00     0.151 C 
ATOM     23  C   UNL d   1      62.651  88.971  92.483  0.00  0.00    -0.024 C 
ATOM     24  C   UNL d   1      62.900  89.750  93.687  0.00  0.00     0.314 C 
ATOM     25  O   UNL d   1      62.730  90.965  93.609  0.00  0.00    -0.257 OA
ATOM     26  N   UNL d   1      63.420  89.110  94.747  0.00  0.00    -0.197 NA
ATOM     27  C   UNL d   1      62.942  87.838  94.975  0.00  0.00     0.135 C 
ATOM     28  C   UNL d   1      63.899  86.651  94.931  0.00  0.00     0.297 C 
ATOM     29  O   UNL d   1      65.100  86.809  95.158  0.00  0.00    -0.264 OA
ATOM     30  N   UNL d   1      63.215  85.539  94.633  0.00  0.00    -0.194 NA
ENDROOT
BRANCH  15  31
ATOM     31  C   UNL d   1      58.752  85.836  89.748  0.00  0.00    -0.021 C 
ATOM     32  C   UNL d   1      57.742  86.757  90.449  0.00  0.00     0.028 C 
ATOM     33  C   UNL d   1      58.269  85.513  88.317  0.00  0.00     0.028 C 
ENDBRANCH  15  31
BRANCH  27  34
ATOM     34  C   UNL d   1      61.636  87.617  95.599  0.00  0.00    -0.021 C 
ATOM     35  C   UNL d   1      61.532  87.249  97.106  0.00  0.00     0.028 C 
ATOM     36  C   UNL d   1      60.351  88.377  95.198  0.00  0.00     0.028 C 
ENDBRANCH  27  34
TORSDOF 2
ENDMDL
MODEL 13
REMARK VINA RESULT:      -6.4      4.420      6.886
REMARK  2 active torsions:
REMARK  status: ('A' for Active; 'I' for Inactive)
REMARK    1  A    between atoms: C_15  and  C_34 
REMARK    2  A    between atoms: C_27  and  C_31 
ROOT
ATOM      1  C   UNL d   1      62.498  88.181  89.756  0.00  0.00    -0.071 C 
ATOM      2  S   UNL d   1      63.369  89.145  90.833  0.00  0.00    -0.004 SA
ATOM      3  S   UNL d   1      63.941  87.729  92.209  0.00  0.00     0.001 SA
ATOM      4  C   UNL d   1      62.471  87.008  92.664  0.00  0.00    -0.034 C 
ATOM      5  C   UNL d   1      61.365  86.150  92.969  0.00  0.00     0.183 C 
ATOM      6  C   UNL d   1      61.707  84.655  93.177  0.00  0.00     0.305 C 
ATOM      7  O   UNL d   1      62.798  84.366  93.683  0.00  0.00    -0.263 OA
ATOM      8  N   UNL d   1      60.772  83.831  92.678  0.00  0.00    -0.194 NA
ATOM      9  C   UNL d   1      60.912  82.472  92.670  0.00  0.00     0.172 C 
ATOM     10  C   UNL d   1      61.849  81.799  93.283  0.00  0.00    -0.103 C 
ATOM     11  C   UNL d   1      62.931  80.887  93.955  0.00  0.00     0.083 C 
ATOM     12  C   UNL d   1      59.845  81.641  91.958  0.00  0.00     0.304 C 
ATOM     13  O   UNL d   1      59.464  80.567  92.424  0.00  0.00    -0.263 OA
ATOM     14  N   UNL d   1      59.474  82.177  90.787  0.00  0.00    -0.202 NA
ATOM     15  C   UNL d   1      58.139  82.171  90.513  0.00  0.00     0.140 C 
ATOM     16  C   UNL d   1      57.608  83.337  89.774  0.00  0.00     0.315 C 
ATOM     17  O   UNL d   1      57.037  83.251  88.689  0.00  0.00    -0.257 OA
ATOM     18  O   UNL d   1      57.827  84.465  90.503  0.00  0.00    -0.274 OA
ATOM     19  C   UNL d   1      57.842  85.649  89.753  0.00  0.00     0.249 C 
ATOM     20  C   UNL d   1      59.096  85.987  89.150  0.00  0.00    -0.047 C 
ATOM     21  C   UNL d   1      60.174  86.471  88.943  0.00  0.00    -0.073 C 
ATOM     22  C   UNL d   1      61.454  87.283  89.100  0.00  0.00     0.151 C 
ATOM     23  C   UNL d   1      57.119  86.748  90.316  0.00  0.00    -0.024 C 
ATOM     24  C   UNL d   1      56.621  87.967  90.937  0.00  0.00     0.314 C 
ATOM     25  O   UNL d   1      55.566  88.424  90.499  0.00  0.00    -0.257 OA
ATOM     26  N   UNL d   1      57.407  88.571  91.842  0.00  0.00    -0.197 NA
ATOM     27  C   UNL d   1      58.099  87.736  92.692  0.00  0.00     0.135 C 
ATOM     28  C   UNL d   1      59.624  87.752  92.693  0.00  0.00     0.297 C 
ATOM     29  O   UNL d   1      60.237  88.758  92.332  0.00  0.00    -0.264 OA
ATOM     30  N   UNL d   1      60.081  86.571  93.129  0.00  0.00    -0.194 NA
ENDROOT
BRANCH  15  31
ATOM     31  C   UNL d   1      57.251  81.066  90.772  0.00  0.00    -0.021 C 
ATOM     32  C   UNL d   1      56.118  81.134  91.807  0.00  0.00     0.028 C 
ATOM     33  C   UNL d   1      56.911  80.024  89.684  0.00  0.00     0.028 C 
ENDBRANCH  15  31
BRANCH  27  34
ATOM     34  C   UNL d   1      57.439  87.094  93.830  0.00  0.00    -0.021 C 
ATOM     35  C   UNL d   1      56.451  87.895  94.726  0.00  0.00     0.028 C 
ATOM     36  C   UNL d   1      57.014  85.608  93.853  0.00  0.00     0.028 C 
ENDBRANCH  27  34
TORSDOF 2
ENDMDL
MODEL 14
REMARK VINA RESULT:      -6.3     19.445     23.224
REMARK  2 active torsions:
REMARK  status: ('A' for Active; 'I' for Inactive)
REMARK    1  A    between atoms: C_15  and  C_34 
REMARK    2  A    between atoms: C_27  and  C_31 
ROOT
ATOM      1  C   UNL d   1      84.603  71.368  96.738  0.00  0.00    -0.071 C 
ATOM      2  S   UNL d   1      85.546  70.776  95.470  0.00  0.00    -0.004 SA
ATOM      3  S   UNL d   1      86.311  72.537  94.733  0.00  0.00     0.001 SA
ATOM      4  C   UNL d   1      84.924  73.473  94.435  0.00  0.00    -0.034 C 
ATOM      5  C   UNL d   1      83.888  74.460  94.358  0.00  0.00     0.183 C 
ATOM      6  C   UNL d   1      84.304  75.906  94.718  0.00  0.00     0.305 C 
ATOM      7  O   UNL d   1      85.452  76.274  94.441  0.00  0.00    -0.263 OA
ATOM      8  N   UNL d   1      83.352  76.571  95.392  0.00  0.00    -0.194 NA
ATOM      9  C   UNL d   1      83.540  77.830  95.889  0.00  0.00     0.172 C 
ATOM     10  C   UNL d   1      84.560  78.605  95.633  0.00  0.00    -0.103 C 
ATOM     11  C   UNL d   1      85.739  79.614  95.420  0.00  0.00     0.083 C 
ATOM     12  C   UNL d   1      82.436  78.436  96.753  0.00  0.00     0.304 C 
ATOM     13  O   UNL d   1      82.145  79.630  96.662  0.00  0.00    -0.263 OA
ATOM     14  N   UNL d   1      81.924  77.557  97.625  0.00  0.00    -0.202 NA
ATOM     15  C   UNL d   1      80.568  77.562  97.768  0.00  0.00     0.140 C 
ATOM     16  C   UNL d   1      79.921  76.253  98.002  0.00  0.00     0.315 C 
ATOM     17  O   UNL d   1      79.243  75.999  98.995  0.00  0.00    -0.257 OA
ATOM     18  O   UNL d   1      80.174  75.434  96.945  0.00  0.00    -0.274 OA
ATOM     19  C   UNL d   1      80.067  74.066  97.230  0.00  0.00     0.249 C 
ATOM     20  C   UNL d   1      81.238  73.452  97.781  0.00  0.00    -0.047 C 
ATOM     21  C   UNL d   1      82.270  72.852  97.896  0.00  0.00    -0.073 C 
ATOM     22  C   UNL d   1      83.528  72.056  97.575  0.00  0.00     0.151 C 
ATOM     23  C   UNL d   1      79.367  73.283  96.257  0.00  0.00    -0.024 C 
ATOM     24  C   UNL d   1      78.894  72.393  95.208  0.00  0.00     0.314 C 
ATOM     25  O   UNL d   1      77.783  71.889  95.365  0.00  0.00    -0.257 OA
ATOM     26  N   UNL d   1      79.748  72.085  94.219  0.00  0.00    -0.197 NA
ATOM     27  C   UNL d   1      80.555  73.111  93.779  0.00  0.00     0.135 C 
ATOM     28  C   UNL d   1      82.070  72.989  93.904  0.00  0.00     0.297 C 
ATOM     29  O   UNL d   1      82.605  71.879  93.939  0.00  0.00    -0.264 OA
ATOM     30  N   UNL d   1      82.613  74.212  93.950  0.00  0.00    -0.194 NA
ENDROOT
BRANCH  15  31
ATOM     31  C   UNL d   1      79.754  78.748  97.838  0.00  0.00    -0.021 C 
ATOM     32  C   UNL d   1      78.499  78.949  96.974  0.00  0.00     0.028 C 
ATOM     33  C   UNL d   1      79.641  79.582  99.134  0.00  0.00     0.028 C 
ENDBRANCH  15  31
BRANCH  27  34
ATOM     34  C   UNL d   1      80.042  74.152  92.887  0.00  0.00    -0.021 C 
ATOM     35  C   UNL d   1      79.258  73.773  91.598  0.00  0.00     0.028 C 
ATOM     36  C   UNL d   1      79.534  75.529  93.372  0.00  0.00     0.028 C 
ENDBRANCH  27  34
TORSDOF 2
ENDMDL
MODEL 15
REMARK VINA RESULT:      -6.1      3.190      5.608
REMARK  2 active torsions:
REMARK  status: ('A' for Active; 'I' for Inactive)
REMARK    1  A    between atoms: C_15  and  C_34 
REMARK    2  A    between atoms: C_27  and  C_31 
ROOT
ATOM      1  C   UNL d   1      64.645  82.597  97.393  0.00  0.00    -0.071 C 
ATOM      2  S   UNL d   1      65.982  82.678  98.419  0.00  0.00    -0.004 SA
ATOM      3  S   UNL d   1      66.102  84.710  98.702  0.00  0.00     0.001 SA
ATOM      4  C   UNL d   1      66.170  85.324  97.118  0.00  0.00    -0.034 C 
ATOM      5  C   UNL d   1      65.994  86.001  95.868  0.00  0.00     0.183 C 
ATOM      6  C   UNL d   1      65.186  87.320  95.922  0.00  0.00     0.305 C 
ATOM      7  O   UNL d   1      65.277  88.024  96.934  0.00  0.00    -0.263 OA
ATOM      8  N   UNL d   1      64.392  87.489  94.853  0.00  0.00    -0.194 NA
ATOM      9  C   UNL d   1      63.523  88.538  94.736  0.00  0.00     0.172 C 
ATOM     10  C   UNL d   1      63.475  89.578  95.524  0.00  0.00    -0.103 C 
ATOM     11  C   UNL d   1      63.306  90.859  96.409  0.00  0.00     0.083 C 
ATOM     12  C   UNL d   1      62.573  88.557  93.539  0.00  0.00     0.304 C 
ATOM     13  O   UNL d   1      62.308  89.611  92.959  0.00  0.00    -0.263 OA
ATOM     14  N   UNL d   1      62.042  87.354  93.286  0.00  0.00    -0.202 NA
ATOM     15  C   UNL d   1      61.975  86.983  91.976  0.00  0.00     0.140 C 
ATOM     16  C   UNL d   1      62.187  85.550  91.680  0.00  0.00     0.315 C 
ATOM     17  O   UNL d   1      61.357  84.842  91.114  0.00  0.00    -0.257 OA
ATOM     18  O   UNL d   1      63.431  85.187  92.100  0.00  0.00    -0.274 OA
ATOM     19  C   UNL d   1      63.585  83.815  92.344  0.00  0.00     0.249 C 
ATOM     20  C   UNL d   1      63.189  83.366  93.645  0.00  0.00    -0.047 C 
ATOM     21  C   UNL d   1      63.210  83.031  94.796  0.00  0.00    -0.073 C 
ATOM     22  C   UNL d   1      63.694  82.707  96.204  0.00  0.00     0.151 C 
ATOM     23  C   UNL d   1      64.786  83.227  91.834  0.00  0.00    -0.024 C 
ATOM     24  C   UNL d   1      66.081  82.619  91.569  0.00  0.00     0.314 C 
ATOM     25  O   UNL d   1      66.145  81.836  90.622  0.00  0.00    -0.257 OA
ATOM     26  N   UNL d   1      67.071  82.851  92.445  0.00  0.00    -0.197 NA
ATOM     27  C   UNL d   1      67.132  84.128  92.960  0.00  0.00     0.135 C 
ATOM     28  C   UNL d   1      66.972  84.347  94.461  0.00  0.00     0.297 C 
ATOM     29  O   UNL d   1      67.251  83.447  95.256  0.00  0.00    -0.264 OA
ATOM     30  N   UNL d   1      66.524  85.589  94.685  0.00  0.00    -0.194 NA
ENDROOT
BRANCH  15  31
ATOM     31  C   UNL d   1      61.587  87.851  90.894  0.00  0.00    -0.021 C 
ATOM     32  C   UNL d   1      62.535  88.225  89.745  0.00  0.00     0.028 C 
ATOM     33  C   UNL d   1      60.119  87.958  90.424  0.00  0.00     0.028 C 
ENDBRANCH  15  31
BRANCH  27  34
ATOM     34  C   UNL d   1      67.687  85.236  92.181  0.00  0.00    -0.021 C 
ATOM     35  C   UNL d   1      66.754  86.322  91.576  0.00  0.00     0.028 C 
ATOM     36  C   UNL d   1      69.061  85.884  92.464  0.00  0.00     0.028 C 
ENDBRANCH  27  34
TORSDOF 2
ENDMDL
MODEL 16
REMARK VINA RESULT:      -6.1     13.238     16.551
REMARK  2 active torsions:
REMARK  status: ('A' for Active; 'I' for Inactive)
REMARK    1  A    between atoms: C_15  and  C_34 
REMARK    2  A    between atoms: C_27  and  C_31 
ROOT
ATOM      1  C   UNL d   1      70.053  79.501  99.700  0.00  0.00    -0.071 C 
ATOM      2  S   UNL d   1      71.470  80.382  99.955  0.00  0.00    -0.004 SA
ATOM      3  S   UNL d   1      72.870  78.898  99.704  0.00  0.00     0.001 SA
ATOM      4  C   UNL d   1      72.371  77.698 100.799  0.00  0.00    -0.034 C 
ATOM      5  C   UNL d   1      71.953  76.511 101.484  0.00  0.00     0.183 C 
ATOM      6  C   UNL d   1      72.263  75.174 100.770  0.00  0.00     0.305 C 
ATOM      7  O   UNL d   1      73.293  75.096 100.090  0.00  0.00    -0.263 OA
ATOM      8  N   UNL d   1      71.288  74.264 100.919  0.00  0.00    -0.194 NA
ATOM      9  C   UNL d   1      71.311  73.047 100.299  0.00  0.00     0.172 C 
ATOM     10  C   UNL d   1      72.325  72.543  99.648  0.00  0.00    -0.103 C 
ATOM     11  C   UNL d   1      73.462  71.844  98.827  0.00  0.00     0.083 C 
ATOM     12  C   UNL d   1      70.085  72.145 100.434  0.00  0.00     0.304 C 
ATOM     13  O   UNL d   1      70.207  70.926 100.568  0.00  0.00    -0.263 OA
ATOM     14  N   UNL d   1      68.934  72.820 100.309  0.00  0.00    -0.202 NA
ATOM     15  C   UNL d   1      67.943  72.499 101.188  0.00  0.00     0.140 C 
ATOM     16  C   UNL d   1      67.078  73.607 101.646  0.00  0.00     0.315 C 
ATOM     17  O   UNL d   1      65.859  73.628 101.486  0.00  0.00    -0.257 OA
ATOM     18  O   UNL d   1      67.842  74.537 102.281  0.00  0.00    -0.274 OA
ATOM     19  C   UNL d   1      67.281  75.821 102.321  0.00  0.00     0.249 C 
ATOM     20  C   UNL d   1      67.521  76.641 101.172  0.00  0.00    -0.047 C 
ATOM     21  C   UNL d   1      67.989  77.448 100.419  0.00  0.00    -0.073 C 
ATOM     22  C   UNL d   1      68.883  78.530  99.823  0.00  0.00     0.151 C 
ATOM     23  C   UNL d   1      67.367  76.495 103.581  0.00  0.00    -0.024 C 
ATOM     24  C   UNL d   1      67.635  77.330 104.743  0.00  0.00     0.314 C 
ATOM     25  O   UNL d   1      66.688  77.558 105.495  0.00  0.00    -0.257 OA
ATOM     26  N   UNL d   1      68.849  77.895 104.838  0.00  0.00    -0.197 NA
ATOM     27  C   UNL d   1      69.910  77.112 104.438  0.00  0.00     0.135 C 
ATOM     28  C   UNL d   1      70.787  77.564 103.275  0.00  0.00     0.297 C 
ATOM     29  O   UNL d   1      70.882  78.760 102.993  0.00  0.00    -0.264 OA
ATOM     30  N   UNL d   1      71.363  76.495 102.710  0.00  0.00    -0.194 NA
ENDROOT
BRANCH  15  31
ATOM     31  C   UNL d   1      67.604  71.158 101.590  0.00  0.00    -0.021 C 
ATOM     32  C   UNL d   1      67.938  70.595 102.981  0.00  0.00     0.028 C 
ATOM     33  C   UNL d   1      66.384  70.416 101.000  0.00  0.00     0.028 C 
ENDBRANCH  15  31
BRANCH  27  34
ATOM     34  C   UNL d   1      70.438  76.051 105.298  0.00  0.00    -0.021 C 
ATOM     35  C   UNL d   1      71.157  76.398 106.632  0.00  0.00     0.028 C 
ATOM     36  C   UNL d   1      69.779  74.662 105.452  0.00  0.00     0.028 C 
ENDBRANCH  27  34
TORSDOF 2
ENDMDL
MODEL 17
REMARK VINA RESULT:      -6.1     12.145     16.176
REMARK  2 active torsions:
REMARK  status: ('A' for Active; 'I' for Inactive)
REMARK    1  A    between atoms: C_15  and  C_34 
REMARK    2  A    between atoms: C_27  and  C_31 
ROOT
ATOM      1  C   UNL d   1      69.128  79.028  91.332  0.00  0.00    -0.071 C 
ATOM      2  S   UNL d   1      68.410  80.246  92.253  0.00  0.00    -0.004 SA
ATOM      3  S   UNL d   1      70.048  81.430  92.630  0.00  0.00     0.001 SA
ATOM      4  C   UNL d   1      71.163  80.348  93.319  0.00  0.00    -0.034 C 
ATOM      5  C   UNL d   1      72.282  79.531  93.683  0.00  0.00     0.183 C 
ATOM      6  C   UNL d   1      73.659  79.991  93.148  0.00  0.00     0.305 C 
ATOM      7  O   UNL d   1      73.866  81.204  93.026  0.00  0.00    -0.263 OA
ATOM      8  N   UNL d   1      74.449  78.967  92.789  0.00  0.00    -0.194 NA
ATOM      9  C   UNL d   1      75.672  79.145  92.206  0.00  0.00     0.172 C 
ATOM     10  C   UNL d   1      76.300  80.284  92.087  0.00  0.00    -0.103 C 
ATOM     11  C   UNL d   1      77.138  81.589  91.867  0.00  0.00     0.083 C 
ATOM     12  C   UNL d   1      76.425  77.908  91.718  0.00  0.00     0.304 C 
ATOM     13  O   UNL d   1      77.647  77.820  91.847  0.00  0.00    -0.263 OA
ATOM     14  N   UNL d   1      75.626  77.033  91.095  0.00  0.00    -0.202 NA
ATOM     15  C   UNL d   1      75.816  75.716  91.395  0.00  0.00     0.140 C 
ATOM     16  C   UNL d   1      74.608  74.864  91.436  0.00  0.00     0.315 C 
ATOM     17  O   UNL d   1      74.451  73.874  90.726  0.00  0.00    -0.257 OA
ATOM     18  O   UNL d   1      73.760  75.338  92.390  0.00  0.00    -0.274 OA
ATOM     19  C   UNL d   1      72.419  74.968  92.211  0.00  0.00     0.249 C 
ATOM     20  C   UNL d   1      71.653  75.807  91.340  0.00  0.00    -0.047 C 
ATOM     21  C   UNL d   1      70.918  76.658  90.924  0.00  0.00    -0.073 C 
ATOM     22  C   UNL d   1      69.957  77.839  90.857  0.00  0.00     0.151 C 
ATOM     23  C   UNL d   1      71.737  74.526  93.389  0.00  0.00    -0.024 C 
ATOM     24  C   UNL d   1      70.917  74.307  94.572  0.00  0.00     0.314 C 
ATOM     25  O   UNL d   1      70.570  73.150  94.801  0.00  0.00    -0.257 OA
ATOM     26  N   UNL d   1      70.493  75.388  95.245  0.00  0.00    -0.197 NA
ATOM     27  C   UNL d   1      71.399  76.420  95.359  0.00  0.00     0.135 C 
ATOM     28  C   UNL d   1      71.071  77.784  94.759  0.00  0.00     0.297 C 
ATOM     29  O   UNL d   1      69.900  78.130  94.600  0.00  0.00    -0.264 OA
ATOM     30  N   UNL d   1      72.209  78.436  94.489  0.00  0.00    -0.194 NA
ENDROOT
BRANCH  15  31
ATOM     31  C   UNL d   1      77.102  75.084  91.541  0.00  0.00    -0.021 C 
ATOM     32  C   UNL d   1      77.489  74.261  92.779  0.00  0.00     0.028 C 
ATOM     33  C   UNL d   1      77.921  74.616  90.318  0.00  0.00     0.028 C 
ENDBRANCH  15  31
BRANCH  27  34
ATOM     34  C   UNL d   1      72.498  76.364  96.325  0.00  0.00    -0.021 C 
ATOM     35  C   UNL d   1      72.213  76.118  97.834  0.00  0.00     0.028 C 
ATOM     36  C   UNL d   1      73.900  75.800  96.001  0.00  0.00     0.028 C 
ENDBRANCH  27  34
TORSDOF 2
ENDMDL
MODEL 18
REMARK VINA RESULT:      -6.0     19.226     22.982
REMARK  2 active torsions:
REMARK  status: ('A' for Active; 'I' for Inactive)
REMARK    1  A    between atoms: C_15  and  C_34 
REMARK    2  A    between atoms: C_27  and  C_31 
ROOT
ATOM      1  C   UNL d   1      78.464  68.889  88.483  0.00  0.00    -0.071 C 
ATOM      2  S   UNL d   1      77.113  68.059  87.906  0.00  0.00    -0.004 SA
ATOM      3  S   UNL d   1      75.694  69.542  88.027  0.00  0.00     0.001 SA
ATOM      4  C   UNL d   1      75.791  70.046  89.647  0.00  0.00    -0.034 C 
ATOM      5  C   UNL d   1      75.915  70.740  90.894  0.00  0.00     0.183 C 
ATOM      6  C   UNL d   1      75.677  72.268  90.845  0.00  0.00     0.305 C 
ATOM      7  O   UNL d   1      74.849  72.708  90.038  0.00  0.00    -0.263 OA
ATOM      8  N   UNL d   1      76.497  72.951  91.659  0.00  0.00    -0.194 NA
ATOM      9  C   UNL d   1      76.523  74.316  91.707  0.00  0.00     0.172 C 
ATOM     10  C   UNL d   1      75.665  75.115  91.131  0.00  0.00    -0.103 C 
ATOM     11  C   UNL d   1      74.716  76.171  90.470  0.00  0.00     0.083 C 
ATOM     12  C   UNL d   1      77.590  74.987  92.571  0.00  0.00     0.304 C 
ATOM     13  O   UNL d   1      77.329  75.997  93.228  0.00  0.00    -0.263 OA
ATOM     14  N   UNL d   1      78.790  74.404  92.451  0.00  0.00    -0.202 NA
ATOM     15  C   UNL d   1      79.494  74.221  93.604  0.00  0.00     0.140 C 
ATOM     16  C   UNL d   1      80.311  72.992  93.693  0.00  0.00     0.315 C 
ATOM     17  O   UNL d   1      81.527  72.995  93.871  0.00  0.00    -0.257 OA
ATOM     18  O   UNL d   1      79.498  71.905  93.585  0.00  0.00    -0.274 OA
ATOM     19  C   UNL d   1      80.143  70.736  93.160  0.00  0.00     0.249 C 
ATOM     20  C   UNL d   1      80.275  70.579  91.742  0.00  0.00    -0.047 C 
ATOM     21  C   UNL d   1      80.086  70.253  90.604  0.00  0.00    -0.073 C 
ATOM     22  C   UNL d   1      79.473  69.630  89.356  0.00  0.00     0.151 C 
ATOM     23  C   UNL d   1      79.801  69.545  93.877  0.00  0.00    -0.024 C 
ATOM     24  C   UNL d   1      79.324  68.268  94.387  0.00  0.00     0.314 C 
ATOM     25  O   UNL d   1      80.067  67.666  95.162  0.00  0.00    -0.257 OA
ATOM     26  N   UNL d   1      78.181  67.781  93.880  0.00  0.00    -0.197 NA
ATOM     27  C   UNL d   1      77.190  68.706  93.633  0.00  0.00     0.135 C 
ATOM     28  C   UNL d   1      76.679  68.907  92.210  0.00  0.00     0.297 C 
ATOM     29  O   UNL d   1      76.766  67.998  91.382  0.00  0.00    -0.264 OA
ATOM     30  N   UNL d   1      76.172  70.141  92.089  0.00  0.00    -0.194 NA
ENDROOT
BRANCH  15  31
ATOM     31  C   UNL d   1      79.600  75.188  94.666  0.00  0.00    -0.021 C 
ATOM     32  C   UNL d   1      79.291  74.852  96.133  0.00  0.00     0.028 C 
ATOM     33  C   UNL d   1      80.591  76.371  94.593  0.00  0.00     0.028 C 
ENDBRANCH  15  31
BRANCH  27  34
ATOM     34  C   UNL d   1      76.370  69.248  94.718  0.00  0.00    -0.021 C 
ATOM     35  C   UNL d   1      75.689  68.299  95.744  0.00  0.00     0.028 C 
ATOM     36  C   UNL d   1      76.653  70.595  95.421  0.00  0.00     0.028 C 
ENDBRANCH  27  34
TORSDOF 2
ENDMDL
MODEL 19
REMARK VINA RESULT:      -6.0     11.911     15.459
REMARK  2 active torsions:
REMARK  status: ('A' for Active; 'I' for Inactive)
REMARK    1  A    between atoms: C_15  and  C_34 
REMARK    2  A    between atoms: C_27  and  C_31 
ROOT
ATOM      1  C   UNL d   1      63.736  73.733 100.694  0.00  0.00    -0.071 C 
ATOM      2  S   UNL d   1      64.251  72.165 101.047  0.00  0.00    -0.004 SA
ATOM      3  S   UNL d   1      64.338  71.375  99.150  0.00  0.00     0.001 SA
ATOM      4  C   UNL d   1      62.784  71.673  98.530  0.00  0.00    -0.034 C 
ATOM      5  C   UNL d   1      61.620  72.057  97.788  0.00  0.00     0.183 C 
ATOM      6  C   UNL d   1      61.849  72.382  96.293  0.00  0.00     0.305 C 
ATOM      7  O   UNL d   1      62.723  71.756  95.682  0.00  0.00    -0.263 OA
ATOM      8  N   UNL d   1      61.096  73.406  95.860  0.00  0.00    -0.194 NA
ATOM      9  C   UNL d   1      61.203  73.921  94.599  0.00  0.00     0.172 C 
ATOM     10  C   UNL d   1      61.889  73.398  93.618  0.00  0.00    -0.103 C 
ATOM     11  C   UNL d   1      62.690  72.881  92.376  0.00  0.00     0.083 C 
ATOM     12  C   UNL d   1      60.392  75.171  94.259  0.00  0.00     0.304 C 
ATOM     13  O   UNL d   1      59.862  75.301  93.155  0.00  0.00    -0.263 OA
ATOM     14  N   UNL d   1      60.413  76.080  95.243  0.00  0.00    -0.202 NA
ATOM     15  C   UNL d   1      59.228  76.690  95.533  0.00  0.00     0.140 C 
ATOM     16  C   UNL d   1      58.978  77.012  96.954  0.00  0.00     0.315 C 
ATOM     17  O   UNL d   1      58.770  78.151  97.365  0.00  0.00    -0.257 OA
ATOM     18  O   UNL d   1      58.984  75.861  97.681  0.00  0.00    -0.274 OA
ATOM     19  C   UNL d   1      59.256  76.037  99.045  0.00  0.00     0.249 C 
ATOM     20  C   UNL d   1      60.643  76.081  99.402  0.00  0.00    -0.047 C 
ATOM     21  C   UNL d   1      61.742  75.771  99.767  0.00  0.00    -0.073 C 
ATOM     22  C   UNL d   1      62.927  74.954 100.269  0.00  0.00     0.151 C 
ATOM     23  C   UNL d   1      58.418  75.302  99.943  0.00  0.00    -0.024 C 
ATOM     24  C   UNL d   1      57.779  74.407 100.896  0.00  0.00     0.314 C 
ATOM     25  O   UNL d   1      56.921  74.896 101.629  0.00  0.00    -0.257 OA
ATOM     26  N   UNL d   1      58.259  73.157 100.996  0.00  0.00    -0.197 NA
ATOM     27  C   UNL d   1      58.635  72.560  99.812  0.00  0.00     0.135 C 
ATOM     28  C   UNL d   1      60.085  72.133  99.608  0.00  0.00     0.297 C 
ATOM     29  O   UNL d   1      60.801  71.875 100.576  0.00  0.00    -0.264 OA
ATOM     30  N   UNL d   1      60.359  72.101  98.297  0.00  0.00    -0.194 NA
ENDROOT
BRANCH  15  31
ATOM     31  C   UNL d   1      58.281  77.152  94.551  0.00  0.00    -0.021 C 
ATOM     32  C   UNL d   1      56.792  76.773  94.588  0.00  0.00     0.028 C 
ATOM     33  C   UNL d   1      58.466  78.496  93.813  0.00  0.00     0.028 C 
ENDBRANCH  15  31
BRANCH  27  34
ATOM     34  C   UNL d   1      57.641  72.006  98.891  0.00  0.00    -0.021 C 
ATOM     35  C   UNL d   1      56.891  70.688  99.236  0.00  0.00     0.028 C 
ATOM     36  C   UNL d   1      56.717  72.868  98.002  0.00  0.00     0.028 C 
ENDBRANCH  27  34
TORSDOF 2
ENDMDL
MODEL 20
REMARK VINA RESULT:      -5.9     14.582     17.140
REMARK  2 active torsions:
REMARK  status: ('A' for Active; 'I' for Inactive)
REMARK    1  A    between atoms: C_15  and  C_34 
REMARK    2  A    between atoms: C_27  and  C_31 
ROOT
ATOM      1  C   UNL d   1      66.612  73.829  96.122  0.00  0.00    -0.071 C 
ATOM      2  S   UNL d   1      66.218  72.350  95.412  0.00  0.00    -0.004 SA
ATOM      3  S   UNL d   1      65.307  71.415  97.000  0.00  0.00     0.001 SA
ATOM      4  C   UNL d   1      66.470  71.516  98.235  0.00  0.00    -0.034 C 
ATOM      5  C   UNL d   1      67.233  71.729  99.429  0.00  0.00     0.183 C 
ATOM      6  C   UNL d   1      66.415  71.947 100.724  0.00  0.00     0.305 C 
ATOM      7  O   UNL d   1      65.336  71.353 100.845  0.00  0.00    -0.263 OA
ATOM      8  N   UNL d   1      66.965  72.858 101.542  0.00  0.00    -0.194 NA
ATOM      9  C   UNL d   1      66.364  73.273 102.698  0.00  0.00     0.172 C 
ATOM     10  C   UNL d   1      65.306  72.734 103.242  0.00  0.00    -0.103 C 
ATOM     11  C   UNL d   1      64.035  72.189 103.976  0.00  0.00     0.083 C 
ATOM     12  C   UNL d   1      67.017  74.410 103.481  0.00  0.00     0.304 C 
ATOM     13  O   UNL d   1      67.042  74.398 104.713  0.00  0.00    -0.263 OA
ATOM     14  N   UNL d   1      67.454  75.397 102.687  0.00  0.00    -0.202 NA
ATOM     15  C   UNL d   1      68.679  75.918 102.983  0.00  0.00     0.140 C 
ATOM     16  C   UNL d   1      69.517  76.335 101.839  0.00  0.00     0.315 C 
ATOM     17  O   UNL d   1      69.932  77.481 101.682  0.00  0.00    -0.257 OA
ATOM     18  O   UNL d   1      69.761  75.254 101.047  0.00  0.00    -0.274 OA
ATOM     19  C   UNL d   1      70.093  75.568  99.721  0.00  0.00     0.249 C 
ATOM     20  C   UNL d   1      68.988  75.768  98.833  0.00  0.00    -0.047 C 
ATOM     21  C   UNL d   1      68.130  75.591  98.015  0.00  0.00    -0.073 C 
ATOM     22  C   UNL d   1      67.226  74.932  96.980  0.00  0.00     0.151 C 
ATOM     23  C   UNL d   1      71.195  74.838  99.171  0.00  0.00    -0.024 C 
ATOM     24  C   UNL d   1      72.130  73.972  98.470  0.00  0.00     0.314 C 
ATOM     25  O   UNL d   1      73.239  74.440  98.216  0.00  0.00    -0.257 OA
ATOM     26  N   UNL d   1      71.678  72.783  98.039  0.00  0.00    -0.197 NA
ATOM     27  C   UNL d   1      70.812  72.126  98.886  0.00  0.00     0.135 C 
ATOM     28  C   UNL d   1      69.391  71.818  98.425  0.00  0.00     0.297 C 
ATOM     29  O   UNL d   1      69.135  71.708  97.225  0.00  0.00    -0.264 OA
ATOM     30  N   UNL d   1      68.592  71.700  99.493  0.00  0.00    -0.194 NA
ENDROOT
BRANCH  15  31
ATOM     31  C   UNL d   1      69.149  76.208 104.313  0.00  0.00    -0.021 C 
ATOM     32  C   UNL d   1      70.485  75.681 104.858  0.00  0.00     0.028 C 
ATOM     33  C   UNL d   1      68.754  77.507 105.050  0.00  0.00     0.028 C 
ENDBRANCH  15  31
BRANCH  27  34
ATOM     34  C   UNL d   1      71.301  71.408 100.065  0.00  0.00    -0.021 C 
ATOM     35  C   UNL d   1      72.646  70.631 100.015  0.00  0.00     0.028 C 
ATOM     36  C   UNL d   1      71.071  71.882 101.517  0.00  0.00     0.028 C 
ENDBRANCH  27  34
TORSDOF 2
ENDMDL
