MODEL 1
REMARK VINA RESULT:      -3.7      0.000      0.000
REMARK  1 active torsions:
REMARK  status: ('A' for Active; 'I' for Inactive)
REMARK    1  A    between atoms: CA_2  and  C_3 
ROOT
ATOM      1  C   UNL d   1      85.813  80.085  96.937  0.00  0.00     0.079 C 
ATOM      2  CA  UNL d   1      85.019  81.094  96.289  0.00  0.00     0.469 C 
ATOM      3  N   UNL d   1      84.861  80.910  94.869  0.00  0.00     0.644 N 
ATOM      4  O   UNL d   1      86.588  79.068  97.453  0.00  0.00    -0.140 OA
ENDROOT
BRANCH   2   5
ATOM      5  C   UNL d   1      84.347  82.317  96.980  0.00  0.00     0.239 C 
ATOM      6  O   UNL d   1      83.073  82.257  97.073  0.00  0.00    -0.645 OA
ATOM      7  O   UNL d   1      85.077  83.267  97.395  0.00  0.00    -0.645 OA
ENDBRANCH   2   5
TORSDOF 1
ENDMDL
MODEL 2
REMARK VINA RESULT:      -3.6     32.057     32.791
REMARK  1 active torsions:
REMARK  status: ('A' for Active; 'I' for Inactive)
REMARK    1  A    between atoms: CA_2  and  C_3 
ROOT
ATOM      1  C   UNL d   1      58.770  72.472  81.085  0.00  0.00     0.079 C 
ATOM      2  CA  UNL d   1      57.660  72.317  81.985  0.00  0.00     0.469 C 
ATOM      3  N   UNL d   1      58.024  72.238  83.376  0.00  0.00     0.644 N 
ATOM      4  O   UNL d   1      59.905  72.617  80.315  0.00  0.00    -0.140 OA
ENDROOT
BRANCH   2   5
ATOM      5  C   UNL d   1      56.158  72.233  81.584  0.00  0.00     0.239 C 
ATOM      6  O   UNL d   1      55.386  71.722  82.466  0.00  0.00    -0.645 OA
ATOM      7  O   UNL d   1      55.800  72.662  80.445  0.00  0.00    -0.645 OA
ENDBRANCH   2   5
TORSDOF 1
ENDMDL
MODEL 3
REMARK VINA RESULT:      -3.6      1.918      2.242
REMARK  1 active torsions:
REMARK  status: ('A' for Active; 'I' for Inactive)
REMARK    1  A    between atoms: CA_2  and  C_3 
ROOT
ATOM      1  C   UNL d   1      83.531  79.411  96.146  0.00  0.00     0.079 C 
ATOM      2  CA  UNL d   1      83.642  80.741  95.613  0.00  0.00     0.469 C 
ATOM      3  N   UNL d   1      84.296  80.820  94.332  0.00  0.00     0.644 N 
ATOM      4  O   UNL d   1      83.478  78.096  96.561  0.00  0.00    -0.140 OA
ENDROOT
BRANCH   2   5
ATOM      5  C   UNL d   1      83.131  82.047  96.290  0.00  0.00     0.239 C 
ATOM      6  O   UNL d   1      83.810  82.438  97.302  0.00  0.00    -0.645 OA
ATOM      7  O   UNL d   1      82.108  82.626  95.816  0.00  0.00    -0.645 OA
ENDBRANCH   2   5
TORSDOF 1
ENDMDL
MODEL 4
REMARK VINA RESULT:      -3.5     31.011     31.752
REMARK  1 active torsions:
REMARK  status: ('A' for Active; 'I' for Inactive)
REMARK    1  A    between atoms: CA_2  and  C_3 
ROOT
ATOM      1  C   UNL d   1      58.326  72.071  80.785  0.00  0.00     0.079 C 
ATOM      2  CA  UNL d   1      58.599  72.702  82.048  0.00  0.00     0.469 C 
ATOM      3  N   UNL d   1      59.670  73.665  82.018  0.00  0.00     0.644 N 
ATOM      4  O   UNL d   1      58.152  71.531  79.528  0.00  0.00    -0.140 OA
ENDROOT
BRANCH   2   5
ATOM      5  C   UNL d   1      57.852  72.433  83.388  0.00  0.00     0.239 C 
ATOM      6  O   UNL d   1      56.668  71.963  83.267  0.00  0.00    -0.645 OA
ATOM      7  O   UNL d   1      58.442  72.685  84.482  0.00  0.00    -0.645 OA
ENDBRANCH   2   5
TORSDOF 1
ENDMDL
MODEL 5
REMARK VINA RESULT:      -3.5     32.497     33.281
REMARK  1 active torsions:
REMARK  status: ('A' for Active; 'I' for Inactive)
REMARK    1  A    between atoms: CA_2  and  C_3 
ROOT
ATOM      1  C   UNL d   1      55.929  72.067  81.043  0.00  0.00     0.079 C 
ATOM      2  CA  UNL d   1      57.162  72.279  80.334  0.00  0.00     0.469 C 
ATOM      3  N   UNL d   1      57.002  72.606  78.941  0.00  0.00     0.644 N 
ATOM      4  O   UNL d   1      54.691  71.885  81.622  0.00  0.00    -0.140 OA
ENDROOT
BRANCH   2   5
ATOM      5  C   UNL d   1      58.595  72.186  80.937  0.00  0.00     0.239 C 
ATOM      6  O   UNL d   1      59.541  72.534  80.149  0.00  0.00    -0.645 OA
ATOM      7  O   UNL d   1      58.735  71.784  82.131  0.00  0.00    -0.645 OA
ENDBRANCH   2   5
TORSDOF 1
ENDMDL
MODEL 6
REMARK VINA RESULT:      -3.5     20.946     22.147
REMARK  1 active torsions:
REMARK  status: ('A' for Active; 'I' for Inactive)
REMARK    1  A    between atoms: CA_2  and  C_3 
ROOT
ATOM      1  C   UNL d   1      64.170  91.246  93.262  0.00  0.00     0.079 C 
ATOM      2  CA  UNL d   1      65.408  90.630  93.658  0.00  0.00     0.469 C 
ATOM      3  N   UNL d   1      65.597  89.293  93.158  0.00  0.00     0.644 N 
ATOM      4  O   UNL d   1      62.958  91.739  92.825  0.00  0.00    -0.140 OA
ENDROOT
BRANCH   2   5
ATOM      5  C   UNL d   1      66.510  91.276  94.549  0.00  0.00     0.239 C 
ATOM      6  O   UNL d   1      66.712  90.696  95.671  0.00  0.00    -0.645 OA
ATOM      7  O   UNL d   1      67.122  92.301  94.124  0.00  0.00    -0.645 OA
ENDBRANCH   2   5
TORSDOF 1
ENDMDL
MODEL 7
REMARK VINA RESULT:      -3.4      1.848      3.294
REMARK  1 active torsions:
REMARK  status: ('A' for Active; 'I' for Inactive)
REMARK    1  A    between atoms: CA_2  and  C_3 
ROOT
ATOM      1  C   UNL d   1      84.922  81.843  96.685  0.00  0.00     0.079 C 
ATOM      2  CA  UNL d   1      85.158  80.637  95.938  0.00  0.00     0.469 C 
ATOM      3  N   UNL d   1      86.296  80.692  95.058  0.00  0.00     0.644 N 
ATOM      4  O   UNL d   1      84.789  83.045  97.348  0.00  0.00    -0.140 OA
ENDROOT
BRANCH   2   5
ATOM      5  C   UNL d   1      84.310  79.333  96.008  0.00  0.00     0.239 C 
ATOM      6  O   UNL d   1      84.779  78.342  95.350  0.00  0.00    -0.645 OA
ATOM      7  O   UNL d   1      83.240  79.331  96.690  0.00  0.00    -0.645 OA
ENDBRANCH   2   5
TORSDOF 1
ENDMDL
MODEL 8
REMARK VINA RESULT:      -3.4     29.389     30.097
REMARK  1 active torsions:
REMARK  status: ('A' for Active; 'I' for Inactive)
REMARK    1  A    between atoms: CA_2  and  C_3 
ROOT
ATOM      1  C   UNL d   1      62.171  72.920  80.535  0.00  0.00     0.079 C 
ATOM      2  CA  UNL d   1      60.987  73.579  81.016  0.00  0.00     0.469 C 
ATOM      3  N   UNL d   1      61.192  74.939  81.445  0.00  0.00     0.644 N 
ATOM      4  O   UNL d   1      63.364  72.387  80.095  0.00  0.00    -0.140 OA
ENDROOT
BRANCH   2   5
ATOM      5  C   UNL d   1      59.562  72.958  81.104  0.00  0.00     0.239 C 
ATOM      6  O   UNL d   1      58.975  73.098  82.232  0.00  0.00    -0.645 OA
ATOM      7  O   UNL d   1      59.083  72.371  80.087  0.00  0.00    -0.645 OA
ENDBRANCH   2   5
TORSDOF 1
ENDMDL
MODEL 9
REMARK VINA RESULT:      -3.4     23.571     24.257
REMARK  1 active torsions:
REMARK  status: ('A' for Active; 'I' for Inactive)
REMARK    1  A    between atoms: CA_2  and  C_3 
ROOT
ATOM      1  C   UNL d   1      61.953  89.986  95.219  0.00  0.00     0.079 C 
ATOM      2  CA  UNL d   1      62.797  90.021  94.056  0.00  0.00     0.469 C 
ATOM      3  N   UNL d   1      63.054  88.733  93.464  0.00  0.00     0.644 N 
ATOM      4  O   UNL d   1      61.138  89.836  96.322  0.00  0.00    -0.140 OA
ENDROOT
BRANCH   2   5
ATOM      5  C   UNL d   1      63.427  91.294  93.417  0.00  0.00     0.239 C 
ATOM      6  O   UNL d   1      64.535  91.671  93.933  0.00  0.00    -0.645 OA
ATOM      7  O   UNL d   1      62.825  91.861  92.456  0.00  0.00    -0.645 OA
ENDBRANCH   2   5
TORSDOF 1
ENDMDL
MODEL 10
REMARK VINA RESULT:      -3.3     17.515     17.840
REMARK  1 active torsions:
REMARK  status: ('A' for Active; 'I' for Inactive)
REMARK    1  A    between atoms: CA_2  and  C_3 
ROOT
ATOM      1  C   UNL d   1      77.565  67.720  88.613  0.00  0.00     0.079 C 
ATOM      2  CA  UNL d   1      77.291  68.207  87.289  0.00  0.00     0.469 C 
ATOM      3  N   UNL d   1      78.250  67.804  86.292  0.00  0.00     0.644 N 
ATOM      4  O   UNL d   1      77.923  67.200  89.840  0.00  0.00    -0.140 OA
ENDROOT
BRANCH   2   5
ATOM      5  C   UNL d   1      76.085  69.099  86.870  0.00  0.00     0.239 C 
ATOM      6  O   UNL d   1      75.233  69.332  87.795  0.00  0.00    -0.645 OA
ATOM      7  O   UNL d   1      76.022  69.528  85.679  0.00  0.00    -0.645 OA
ENDBRANCH   2   5
TORSDOF 1
ENDMDL
MODEL 11
REMARK VINA RESULT:      -3.3      5.612      6.651
REMARK  1 active torsions:
REMARK  status: ('A' for Active; 'I' for Inactive)
REMARK    1  A    between atoms: CA_2  and  C_3 
ROOT
ATOM      1  C   UNL d   1      77.983  80.739  99.113  0.00  0.00     0.079 C 
ATOM      2  CA  UNL d   1      78.708  81.562  98.183  0.00  0.00     0.469 C 
ATOM      3  N   UNL d   1      78.102  81.671  96.881  0.00  0.00     0.644 N 
ATOM      4  O   UNL d   1      77.209  79.932  99.920  0.00  0.00    -0.140 OA
ENDROOT
BRANCH   2   5
ATOM      5  C   UNL d   1      80.042  82.313  98.469  0.00  0.00     0.239 C 
ATOM      6  O   UNL d   1      80.700  81.889  99.481  0.00  0.00    -0.645 OA
ATOM      7  O   UNL d   1      80.386  83.267  97.708  0.00  0.00    -0.645 OA
ENDBRANCH   2   5
TORSDOF 1
ENDMDL
MODEL 12
REMARK VINA RESULT:      -3.3      2.773      3.438
REMARK  1 active torsions:
REMARK  status: ('A' for Active; 'I' for Inactive)
REMARK    1  A    between atoms: CA_2  and  C_3 
ROOT
ATOM      1  C   UNL d   1      84.057  82.045  96.609  0.00  0.00     0.079 C 
ATOM      2  CA  UNL d   1      83.133  81.708  95.561  0.00  0.00     0.469 C 
ATOM      3  N   UNL d   1      81.768  82.085  95.822  0.00  0.00     0.644 N 
ATOM      4  O   UNL d   1      84.853  82.414  97.674  0.00  0.00    -0.140 OA
ENDROOT
BRANCH   2   5
ATOM      5  C   UNL d   1      83.485  80.994  94.222  0.00  0.00     0.239 C 
ATOM      6  O   UNL d   1      82.594  81.082  93.308  0.00  0.00    -0.645 OA
ATOM      7  O   UNL d   1      84.595  80.390  94.120  0.00  0.00    -0.645 OA
ENDBRANCH   2   5
TORSDOF 1
ENDMDL
MODEL 13
REMARK VINA RESULT:      -3.3     16.883     17.317
REMARK  1 active torsions:
REMARK  status: ('A' for Active; 'I' for Inactive)
REMARK    1  A    between atoms: CA_2  and  C_3 
ROOT
ATOM      1  C   UNL d   1      77.556  68.256  86.727  0.00  0.00     0.079 C 
ATOM      2  CA  UNL d   1      76.543  69.132  87.249  0.00  0.00     0.469 C 
ATOM      3  N   UNL d   1      75.512  69.483  86.306  0.00  0.00     0.644 N 
ATOM      4  O   UNL d   1      78.471  67.417  86.125  0.00  0.00    -0.140 OA
ENDROOT
BRANCH   2   5
ATOM      5  C   UNL d   1      76.480  69.705  88.696  0.00  0.00     0.239 C 
ATOM      6  O   UNL d   1      76.231  70.957  88.775  0.00  0.00    -0.645 OA
ATOM      7  O   UNL d   1      76.674  68.924  89.675  0.00  0.00    -0.645 OA
ENDBRANCH   2   5
TORSDOF 1
ENDMDL
MODEL 14
REMARK VINA RESULT:      -3.2     16.964     17.541
REMARK  1 active torsions:
REMARK  status: ('A' for Active; 'I' for Inactive)
REMARK    1  A    between atoms: CA_2  and  C_3 
ROOT
ATOM      1  C   UNL d   1      74.548  69.950  89.273  0.00  0.00     0.079 C 
ATOM      2  CA  UNL d   1      75.783  69.886  88.539  0.00  0.00     0.469 C 
ATOM      3  N   UNL d   1      76.857  70.659  89.106  0.00  0.00     0.644 N 
ATOM      4  O   UNL d   1      73.418  70.083  90.053  0.00  0.00    -0.140 OA
ENDROOT
BRANCH   2   5
ATOM      5  C   UNL d   1      76.032  69.077  87.231  0.00  0.00     0.239 C 
ATOM      6  O   UNL d   1      76.651  67.968  87.387  0.00  0.00    -0.645 OA
ATOM      7  O   UNL d   1      75.622  69.549  86.129  0.00  0.00    -0.645 OA
ENDBRANCH   2   5
TORSDOF 1
ENDMDL
MODEL 15
REMARK VINA RESULT:      -3.2     15.925     16.358
REMARK  1 active torsions:
REMARK  status: ('A' for Active; 'I' for Inactive)
REMARK    1  A    between atoms: CA_2  and  C_3 
ROOT
ATOM      1  C   UNL d   1      76.311  69.585  89.157  0.00  0.00     0.079 C 
ATOM      2  CA  UNL d   1      75.478  70.702  89.512  0.00  0.00     0.469 C 
ATOM      3  N   UNL d   1      76.030  71.990  89.179  0.00  0.00     0.644 N 
ATOM      4  O   UNL d   1      77.187  68.591  88.775  0.00  0.00    -0.140 OA
ENDROOT
BRANCH   2   5
ATOM      5  C   UNL d   1      74.083  70.624  90.200  0.00  0.00     0.239 C 
ATOM      6  O   UNL d   1      73.798  71.609  90.966  0.00  0.00    -0.645 OA
ATOM      7  O   UNL d   1      73.338  69.625  89.969  0.00  0.00    -0.645 OA
ENDBRANCH   2   5
TORSDOF 1
ENDMDL
MODEL 16
REMARK VINA RESULT:      -3.2     33.657     34.398
REMARK  1 active torsions:
REMARK  status: ('A' for Active; 'I' for Inactive)
REMARK    1  A    between atoms: CA_2  and  C_3 
ROOT
ATOM      1  C   UNL d   1      57.321  72.338  80.479  0.00  0.00     0.079 C 
ATOM      2  CA  UNL d   1      56.117  72.300  81.264  0.00  0.00     0.469 C 
ATOM      3  N   UNL d   1      56.332  72.179  82.683  0.00  0.00     0.644 N 
ATOM      4  O   UNL d   1      58.536  72.365  79.826  0.00  0.00    -0.140 OA
ENDROOT
BRANCH   2   5
ATOM      5  C   UNL d   1      54.661  72.377  80.716  0.00  0.00     0.239 C 
ATOM      6  O   UNL d   1      54.467  73.258  79.809  0.00  0.00    -0.645 OA
ATOM      7  O   UNL d   1      53.785  71.590  81.184  0.00  0.00    -0.645 OA
ENDBRANCH   2   5
TORSDOF 1
ENDMDL
MODEL 17
REMARK VINA RESULT:      -3.2     21.729     22.878
REMARK  1 active torsions:
REMARK  status: ('A' for Active; 'I' for Inactive)
REMARK    1  A    between atoms: CA_2  and  C_3 
ROOT
ATOM      1  C   UNL d   1      65.483  91.007  93.982  0.00  0.00     0.079 C 
ATOM      2  CA  UNL d   1      64.870  90.289  92.898  0.00  0.00     0.469 C 
ATOM      3  N   UNL d   1      65.507  89.039  92.571  0.00  0.00     0.644 N 
ATOM      4  O   UNL d   1      66.149  91.608  95.030  0.00  0.00    -0.140 OA
ENDROOT
BRANCH   2   5
ATOM      5  C   UNL d   1      63.622  90.745  92.085  0.00  0.00     0.239 C 
ATOM      6  O   UNL d   1      62.969  89.803  91.517  0.00  0.00    -0.645 OA
ATOM      7  O   UNL d   1      63.337  91.979  92.036  0.00  0.00    -0.645 OA
ENDBRANCH   2   5
TORSDOF 1
ENDMDL
MODEL 18
REMARK VINA RESULT:      -3.2     17.902     18.365
REMARK  1 active torsions:
REMARK  status: ('A' for Active; 'I' for Inactive)
REMARK    1  A    between atoms: CA_2  and  C_3 
ROOT
ATOM      1  C   UNL d   1      76.258  69.073  86.787  0.00  0.00     0.079 C 
ATOM      2  CA  UNL d   1      76.949  68.319  87.797  0.00  0.00     0.469 C 
ATOM      3  N   UNL d   1      76.851  68.867  89.125  0.00  0.00     0.644 N 
ATOM      4  O   UNL d   1      75.563  69.872  85.902  0.00  0.00    -0.140 OA
ENDROOT
BRANCH   2   5
ATOM      5  C   UNL d   1      77.760  67.009  87.570  0.00  0.00     0.239 C 
ATOM      6  O   UNL d   1      78.439  66.969  86.486  0.00  0.00    -0.645 OA
ATOM      7  O   UNL d   1      77.703  66.091  88.442  0.00  0.00    -0.645 OA
ENDBRANCH   2   5
TORSDOF 1
ENDMDL
MODEL 19
REMARK VINA RESULT:      -3.1     23.009     23.102
REMARK  1 active torsions:
REMARK  status: ('A' for Active; 'I' for Inactive)
REMARK    1  A    between atoms: CA_2  and  C_3 
ROOT
ATOM      1  C   UNL d   1      64.134  73.204  90.536  0.00  0.00     0.079 C 
ATOM      2  CA  UNL d   1      64.108  74.607  90.221  0.00  0.00     0.469 C 
ATOM      3  N   UNL d   1      64.017  75.476  91.366  0.00  0.00     0.644 N 
ATOM      4  O   UNL d   1      64.153  71.889  90.950  0.00  0.00    -0.140 OA
ENDROOT
BRANCH   2   5
ATOM      5  C   UNL d   1      64.167  75.229  88.794  0.00  0.00     0.239 C 
ATOM      6  O   UNL d   1      63.637  76.388  88.683  0.00  0.00    -0.645 OA
ATOM      7  O   UNL d   1      64.717  74.573  87.860  0.00  0.00    -0.645 OA
ENDBRANCH   2   5
TORSDOF 1
ENDMDL
MODEL 20
REMARK VINA RESULT:      -3.1     21.606     22.855
REMARK  1 active torsions:
REMARK  status: ('A' for Active; 'I' for Inactive)
REMARK    1  A    between atoms: CA_2  and  C_3 
ROOT
ATOM      1  C   UNL d   1      65.284  89.178  92.666  0.00  0.00     0.079 C 
ATOM      2  CA  UNL d   1      64.846  90.524  92.919  0.00  0.00     0.469 C 
ATOM      3  N   UNL d   1      65.582  91.209  93.950  0.00  0.00     0.644 N 
ATOM      4  O   UNL d   1      65.785  87.903  92.506  0.00  0.00    -0.140 OA
ENDROOT
BRANCH   2   5
ATOM      5  C   UNL d   1      63.683  91.263  92.192  0.00  0.00     0.239 C 
ATOM      6  O   UNL d   1      62.810  91.793  92.962  0.00  0.00    -0.645 OA
ATOM      7  O   UNL d   1      63.672  91.294  90.925  0.00  0.00    -0.645 OA
ENDBRANCH   2   5
TORSDOF 1
ENDMDL
