MODEL 1
REMARK VINA RESULT:      -1.3      0.000      0.000
REMARK  4 active torsions:
REMARK  status: ('A' for Active; 'I' for Inactive)
REMARK    1  A    between atoms: C_2  and  C_4 
REMARK    2  A    between atoms: C_4  and  C_6 
REMARK    3  A    between atoms: C_6  and  C_8 
REMARK    4  A    between atoms: C_8  and  C_10 
ROOT
ATOM      1 NA   UNL d   1      69.550  64.477  88.011  0.00  0.00     0.000 Na
ENDROOT
TORSDOF 4
ENDMDL
MODEL 2
REMARK VINA RESULT:      -1.2     28.518     28.518
REMARK  4 active torsions:
REMARK  status: ('A' for Active; 'I' for Inactive)
REMARK    1  A    between atoms: C_2  and  C_4 
REMARK    2  A    between atoms: C_4  and  C_6 
REMARK    3  A    between atoms: C_6  and  C_8 
REMARK    4  A    between atoms: C_8  and  C_10 
ROOT
ATOM      1 NA   UNL d   1      79.756  90.280  94.592  0.00  0.00     0.000 Na
ENDROOT
TORSDOF 4
ENDMDL
MODEL 3
REMARK VINA RESULT:      -1.2     19.835     19.835
REMARK  4 active torsions:
REMARK  status: ('A' for Active; 'I' for Inactive)
REMARK    1  A    between atoms: C_2  and  C_4 
REMARK    2  A    between atoms: C_4  and  C_6 
REMARK    3  A    between atoms: C_6  and  C_8 
REMARK    4  A    between atoms: C_8  and  C_10 
ROOT
ATOM      1 NA   UNL d   1      65.876  80.051  76.289  0.00  0.00     0.000 Na
ENDROOT
TORSDOF 4
ENDMDL
MODEL 4
REMARK VINA RESULT:      -1.2     16.299     16.299
REMARK  4 active torsions:
REMARK  status: ('A' for Active; 'I' for Inactive)
REMARK    1  A    between atoms: C_2  and  C_4 
REMARK    2  A    between atoms: C_4  and  C_6 
REMARK    3  A    between atoms: C_6  and  C_8 
REMARK    4  A    between atoms: C_8  and  C_10 
ROOT
ATOM      1 NA   UNL d   1      55.005  63.125  95.242  0.00  0.00     0.000 Na
ENDROOT
TORSDOF 4
ENDMDL
MODEL 5
REMARK VINA RESULT:      -1.1      4.327      4.327
REMARK  4 active torsions:
REMARK  status: ('A' for Active; 'I' for Inactive)
REMARK    1  A    between atoms: C_2  and  C_4 
REMARK    2  A    between atoms: C_4  and  C_6 
REMARK    3  A    between atoms: C_6  and  C_8 
REMARK    4  A    between atoms: C_8  and  C_10 
ROOT
ATOM      1 NA   UNL d   1      69.978  60.443  86.507  0.00  0.00     0.000 Na
ENDROOT
TORSDOF 4
ENDMDL
MODEL 6
REMARK VINA RESULT:      -1.1     18.292     18.292
REMARK  4 active torsions:
REMARK  status: ('A' for Active; 'I' for Inactive)
REMARK    1  A    between atoms: C_2  and  C_4 
REMARK    2  A    between atoms: C_4  and  C_6 
REMARK    3  A    between atoms: C_6  and  C_8 
REMARK    4  A    between atoms: C_8  and  C_10 
ROOT
ATOM      1 NA   UNL d   1      61.014  79.652  82.403  0.00  0.00     0.000 Na
ENDROOT
TORSDOF 4
ENDMDL
MODEL 7
REMARK VINA RESULT:      -1.1     11.732     11.732
REMARK  4 active torsions:
REMARK  status: ('A' for Active; 'I' for Inactive)
REMARK    1  A    between atoms: C_2  and  C_4 
REMARK    2  A    between atoms: C_4  and  C_6 
REMARK    3  A    between atoms: C_6  and  C_8 
REMARK    4  A    between atoms: C_8  and  C_10 
ROOT
ATOM      1 NA   UNL d   1      57.964  66.308  88.272  0.00  0.00     0.000 Na
ENDROOT
TORSDOF 4
ENDMDL
MODEL 8
REMARK VINA RESULT:      -1.1     22.798     22.798
REMARK  4 active torsions:
REMARK  status: ('A' for Active; 'I' for Inactive)
REMARK    1  A    between atoms: C_2  and  C_4 
REMARK    2  A    between atoms: C_4  and  C_6 
REMARK    3  A    between atoms: C_6  and  C_8 
REMARK    4  A    between atoms: C_8  and  C_10 
ROOT
ATOM      1 NA   UNL d   1      78.121  73.979 106.879  0.00  0.00     0.000 Na
ENDROOT
TORSDOF 4
ENDMDL
MODEL 9
REMARK VINA RESULT:      -1.1     19.074     19.074
REMARK  4 active torsions:
REMARK  status: ('A' for Active; 'I' for Inactive)
REMARK    1  A    between atoms: C_2  and  C_4 
REMARK    2  A    between atoms: C_4  and  C_6 
REMARK    3  A    between atoms: C_6  and  C_8 
REMARK    4  A    between atoms: C_8  and  C_10 
ROOT
ATOM      1 NA   UNL d   1      55.087  76.897  88.637  0.00  0.00     0.000 Na
ENDROOT
TORSDOF 4
ENDMDL
MODEL 10
REMARK VINA RESULT:      -1.1     27.060     27.060
REMARK  4 active torsions:
REMARK  status: ('A' for Active; 'I' for Inactive)
REMARK    1  A    between atoms: C_2  and  C_4 
REMARK    2  A    between atoms: C_4  and  C_6 
REMARK    3  A    between atoms: C_6  and  C_8 
REMARK    4  A    between atoms: C_8  and  C_10 
ROOT
ATOM      1 NA   UNL d   1      81.635  88.632  86.367  0.00  0.00     0.000 Na
ENDROOT
TORSDOF 4
ENDMDL
MODEL 11
REMARK VINA RESULT:      -1.1     11.629     11.629
REMARK  4 active torsions:
REMARK  status: ('A' for Active; 'I' for Inactive)
REMARK    1  A    between atoms: C_2  and  C_4 
REMARK    2  A    between atoms: C_4  and  C_6 
REMARK    3  A    between atoms: C_6  and  C_8 
REMARK    4  A    between atoms: C_8  and  C_10 
ROOT
ATOM      1 NA   UNL d   1      63.404  61.694  97.482  0.00  0.00     0.000 Na
ENDROOT
TORSDOF 4
ENDMDL
MODEL 12
REMARK VINA RESULT:      -1.0     18.945     18.945
REMARK  4 active torsions:
REMARK  status: ('A' for Active; 'I' for Inactive)
REMARK    1  A    between atoms: C_2  and  C_4 
REMARK    2  A    between atoms: C_4  and  C_6 
REMARK    3  A    between atoms: C_6  and  C_8 
REMARK    4  A    between atoms: C_8  and  C_10 
ROOT
ATOM      1 NA   UNL d   1      73.045  62.433 106.518  0.00  0.00     0.000 Na
ENDROOT
TORSDOF 4
ENDMDL
MODEL 13
REMARK VINA RESULT:      -1.0      6.728      6.728
REMARK  4 active torsions:
REMARK  status: ('A' for Active; 'I' for Inactive)
REMARK    1  A    between atoms: C_2  and  C_4 
REMARK    2  A    between atoms: C_4  and  C_6 
REMARK    3  A    between atoms: C_6  and  C_8 
REMARK    4  A    between atoms: C_8  and  C_10 
ROOT
ATOM      1 NA   UNL d   1      73.062  69.679  85.589  0.00  0.00     0.000 Na
ENDROOT
TORSDOF 4
ENDMDL
MODEL 14
REMARK VINA RESULT:      -1.0     17.044     17.044
REMARK  4 active torsions:
REMARK  status: ('A' for Active; 'I' for Inactive)
REMARK    1  A    between atoms: C_2  and  C_4 
REMARK    2  A    between atoms: C_4  and  C_6 
REMARK    3  A    between atoms: C_6  and  C_8 
REMARK    4  A    between atoms: C_8  and  C_10 
ROOT
ATOM      1 NA   UNL d   1      77.859  76.721  79.554  0.00  0.00     0.000 Na
ENDROOT
TORSDOF 4
ENDMDL
MODEL 15
REMARK VINA RESULT:      -1.0     27.037     27.037
REMARK  4 active torsions:
REMARK  status: ('A' for Active; 'I' for Inactive)
REMARK    1  A    between atoms: C_2  and  C_4 
REMARK    2  A    between atoms: C_4  and  C_6 
REMARK    3  A    between atoms: C_6  and  C_8 
REMARK    4  A    between atoms: C_8  and  C_10 
ROOT
ATOM      1 NA   UNL d   1      85.319  84.023  98.025  0.00  0.00     0.000 Na
ENDROOT
TORSDOF 4
ENDMDL
MODEL 16
REMARK VINA RESULT:      -1.0     24.083     24.083
REMARK  4 active torsions:
REMARK  status: ('A' for Active; 'I' for Inactive)
REMARK    1  A    between atoms: C_2  and  C_4 
REMARK    2  A    between atoms: C_4  and  C_6 
REMARK    3  A    between atoms: C_6  and  C_8 
REMARK    4  A    between atoms: C_8  and  C_10 
ROOT
ATOM      1 NA   UNL d   1      81.880  75.266 105.662  0.00  0.00     0.000 Na
ENDROOT
TORSDOF 4
ENDMDL
MODEL 17
REMARK VINA RESULT:      -1.0     31.613     31.613
REMARK  4 active torsions:
REMARK  status: ('A' for Active; 'I' for Inactive)
REMARK    1  A    between atoms: C_2  and  C_4 
REMARK    2  A    between atoms: C_4  and  C_6 
REMARK    3  A    between atoms: C_6  and  C_8 
REMARK    4  A    between atoms: C_8  and  C_10 
ROOT
ATOM      1 NA   UNL d   1      79.696  93.073  96.882  0.00  0.00     0.000 Na
ENDROOT
TORSDOF 4
ENDMDL
MODEL 18
REMARK VINA RESULT:      -1.0     22.108     22.108
REMARK  4 active torsions:
REMARK  status: ('A' for Active; 'I' for Inactive)
REMARK    1  A    between atoms: C_2  and  C_4 
REMARK    2  A    between atoms: C_4  and  C_6 
REMARK    3  A    between atoms: C_6  and  C_8 
REMARK    4  A    between atoms: C_8  and  C_10 
ROOT
ATOM      1 NA   UNL d   1      77.733  75.699 105.212  0.00  0.00     0.000 Na
ENDROOT
TORSDOF 4
ENDMDL
MODEL 19
REMARK VINA RESULT:      -0.9      9.121      9.121
REMARK  4 active torsions:
REMARK  status: ('A' for Active; 'I' for Inactive)
REMARK    1  A    between atoms: C_2  and  C_4 
REMARK    2  A    between atoms: C_4  and  C_6 
REMARK    3  A    between atoms: C_6  and  C_8 
REMARK    4  A    between atoms: C_8  and  C_10 
ROOT
ATOM      1 NA   UNL d   1      65.273  66.902  95.694  0.00  0.00     0.000 Na
ENDROOT
TORSDOF 4
ENDMDL
MODEL 20
REMARK VINA RESULT:      -0.9     22.024     22.024
REMARK  4 active torsions:
REMARK  status: ('A' for Active; 'I' for Inactive)
REMARK    1  A    between atoms: C_2  and  C_4 
REMARK    2  A    between atoms: C_4  and  C_6 
REMARK    3  A    between atoms: C_6  and  C_8 
REMARK    4  A    between atoms: C_8  and  C_10 
ROOT
ATOM      1 NA   UNL d   1      81.039  75.127 103.492  0.00  0.00     0.000 Na
ENDROOT
TORSDOF 4
ENDMDL
