MODEL 1
REMARK VINA RESULT:      -1.1      0.000      0.000
REMARK  6 active torsions:
REMARK  status: ('A' for Active; 'I' for Inactive)
REMARK    1  A    between atoms: C_3  and  N_5 
REMARK    2  A    between atoms: N_5  and  C_6 
REMARK    3  A    between atoms: C_6  and  C_7 
REMARK    4  A    between atoms: C_7  and  C_9 
REMARK    5  A    between atoms: C_12  and  N_13 
REMARK    6  A    between atoms: N_13  and  S_14 
ROOT
ATOM      1 CL   UNL d   1      67.194  88.743  77.748  0.00  0.00     0.000 Cl
ENDROOT
TORSDOF 6
ENDMDL
MODEL 2
REMARK VINA RESULT:      -1.1     16.658     16.658
REMARK  6 active torsions:
REMARK  status: ('A' for Active; 'I' for Inactive)
REMARK    1  A    between atoms: C_3  and  N_5 
REMARK    2  A    between atoms: N_5  and  C_6 
REMARK    3  A    between atoms: C_6  and  C_7 
REMARK    4  A    between atoms: C_7  and  C_9 
REMARK    5  A    between atoms: C_12  and  N_13 
REMARK    6  A    between atoms: N_13  and  S_14 
ROOT
ATOM      1 CL   UNL d   1      79.243  78.208  82.364  0.00  0.00     0.000 Cl
ENDROOT
TORSDOF 6
ENDMDL
MODEL 3
REMARK VINA RESULT:      -1.0      9.797      9.797
REMARK  6 active torsions:
REMARK  status: ('A' for Active; 'I' for Inactive)
REMARK    1  A    between atoms: C_3  and  N_5 
REMARK    2  A    between atoms: N_5  and  C_6 
REMARK    3  A    between atoms: C_6  and  C_7 
REMARK    4  A    between atoms: C_7  and  C_9 
REMARK    5  A    between atoms: C_12  and  N_13 
REMARK    6  A    between atoms: N_13  and  S_14 
ROOT
ATOM      1 CL   UNL d   1      75.985  91.657  74.553  0.00  0.00     0.000 Cl
ENDROOT
TORSDOF 6
ENDMDL
MODEL 4
REMARK VINA RESULT:      -1.0     18.817     18.817
REMARK  6 active torsions:
REMARK  status: ('A' for Active; 'I' for Inactive)
REMARK    1  A    between atoms: C_3  and  N_5 
REMARK    2  A    between atoms: N_5  and  C_6 
REMARK    3  A    between atoms: C_6  and  C_7 
REMARK    4  A    between atoms: C_7  and  C_9 
REMARK    5  A    between atoms: C_12  and  N_13 
REMARK    6  A    between atoms: N_13  and  S_14 
ROOT
ATOM      1 CL   UNL d   1      84.652  84.606  72.075  0.00  0.00     0.000 Cl
ENDROOT
TORSDOF 6
ENDMDL
MODEL 5
REMARK VINA RESULT:      -0.9      9.002      9.002
REMARK  6 active torsions:
REMARK  status: ('A' for Active; 'I' for Inactive)
REMARK    1  A    between atoms: C_3  and  N_5 
REMARK    2  A    between atoms: N_5  and  C_6 
REMARK    3  A    between atoms: C_6  and  C_7 
REMARK    4  A    between atoms: C_7  and  C_9 
REMARK    5  A    between atoms: C_12  and  N_13 
REMARK    6  A    between atoms: N_13  and  S_14 
ROOT
ATOM      1 CL   UNL d   1      74.323  92.442  73.682  0.00  0.00     0.000 Cl
ENDROOT
TORSDOF 6
ENDMDL
MODEL 6
REMARK VINA RESULT:      -0.9     29.527     29.527
REMARK  6 active torsions:
REMARK  status: ('A' for Active; 'I' for Inactive)
REMARK    1  A    between atoms: C_3  and  N_5 
REMARK    2  A    between atoms: N_5  and  C_6 
REMARK    3  A    between atoms: C_6  and  C_7 
REMARK    4  A    between atoms: C_7  and  C_9 
REMARK    5  A    between atoms: C_12  and  N_13 
REMARK    6  A    between atoms: N_13  and  S_14 
ROOT
ATOM      1 CL   UNL d   1      56.592  63.060  87.740  0.00  0.00     0.000 Cl
ENDROOT
TORSDOF 6
ENDMDL
MODEL 7
REMARK VINA RESULT:      -0.9     38.736     38.736
REMARK  6 active torsions:
REMARK  status: ('A' for Active; 'I' for Inactive)
REMARK    1  A    between atoms: C_3  and  N_5 
REMARK    2  A    between atoms: N_5  and  C_6 
REMARK    3  A    between atoms: C_6  and  C_7 
REMARK    4  A    between atoms: C_7  and  C_9 
REMARK    5  A    between atoms: C_12  and  N_13 
REMARK    6  A    between atoms: N_13  and  S_14 
ROOT
ATOM      1 CL   UNL d   1      73.499  58.604 101.251  0.00  0.00     0.000 Cl
ENDROOT
TORSDOF 6
ENDMDL
MODEL 8
REMARK VINA RESULT:      -0.9     19.383     19.383
REMARK  6 active torsions:
REMARK  status: ('A' for Active; 'I' for Inactive)
REMARK    1  A    between atoms: C_3  and  N_5 
REMARK    2  A    between atoms: N_5  and  C_6 
REMARK    3  A    between atoms: C_6  and  C_7 
REMARK    4  A    between atoms: C_7  and  C_9 
REMARK    5  A    between atoms: C_12  and  N_13 
REMARK    6  A    between atoms: N_13  and  S_14 
ROOT
ATOM      1 CL   UNL d   1      57.094  74.249  85.723  0.00  0.00     0.000 Cl
ENDROOT
TORSDOF 6
ENDMDL
MODEL 9
REMARK VINA RESULT:      -0.9     26.795     26.795
REMARK  6 active torsions:
REMARK  status: ('A' for Active; 'I' for Inactive)
REMARK    1  A    between atoms: C_3  and  N_5 
REMARK    2  A    between atoms: N_5  and  C_6 
REMARK    3  A    between atoms: C_6  and  C_7 
REMARK    4  A    between atoms: C_7  and  C_9 
REMARK    5  A    between atoms: C_12  and  N_13 
REMARK    6  A    between atoms: N_13  and  S_14 
ROOT
ATOM      1 CL   UNL d   1      86.281  80.978  94.877  0.00  0.00     0.000 Cl
ENDROOT
TORSDOF 6
ENDMDL
MODEL 10
REMARK VINA RESULT:      -0.9     27.092     27.092
REMARK  6 active torsions:
REMARK  status: ('A' for Active; 'I' for Inactive)
REMARK    1  A    between atoms: C_3  and  N_5 
REMARK    2  A    between atoms: N_5  and  C_6 
REMARK    3  A    between atoms: C_6  and  C_7 
REMARK    4  A    between atoms: C_7  and  C_9 
REMARK    5  A    between atoms: C_12  and  N_13 
REMARK    6  A    between atoms: N_13  and  S_14 
ROOT
ATOM      1 CL   UNL d   1      84.881  82.611  97.332  0.00  0.00     0.000 Cl
ENDROOT
TORSDOF 6
ENDMDL
MODEL 11
REMARK VINA RESULT:      -0.9     21.710     21.710
REMARK  6 active torsions:
REMARK  status: ('A' for Active; 'I' for Inactive)
REMARK    1  A    between atoms: C_3  and  N_5 
REMARK    2  A    between atoms: N_5  and  C_6 
REMARK    3  A    between atoms: C_6  and  C_7 
REMARK    4  A    between atoms: C_7  and  C_9 
REMARK    5  A    between atoms: C_12  and  N_13 
REMARK    6  A    between atoms: N_13  and  S_14 
ROOT
ATOM      1 CL   UNL d   1      64.886  68.386  84.931  0.00  0.00     0.000 Cl
ENDROOT
TORSDOF 6
ENDMDL
MODEL 12
REMARK VINA RESULT:      -0.8     23.263     23.263
REMARK  6 active torsions:
REMARK  status: ('A' for Active; 'I' for Inactive)
REMARK    1  A    between atoms: C_3  and  N_5 
REMARK    2  A    between atoms: N_5  and  C_6 
REMARK    3  A    between atoms: C_6  and  C_7 
REMARK    4  A    between atoms: C_7  and  C_9 
REMARK    5  A    between atoms: C_12  and  N_13 
REMARK    6  A    between atoms: N_13  and  S_14 
ROOT
ATOM      1 CL   UNL d   1      79.950  91.738  96.971  0.00  0.00     0.000 Cl
ENDROOT
TORSDOF 6
ENDMDL
MODEL 13
REMARK VINA RESULT:      -0.8     31.722     31.722
REMARK  6 active torsions:
REMARK  status: ('A' for Active; 'I' for Inactive)
REMARK    1  A    between atoms: C_3  and  N_5 
REMARK    2  A    between atoms: N_5  and  C_6 
REMARK    3  A    between atoms: C_6  and  C_7 
REMARK    4  A    between atoms: C_7  and  C_9 
REMARK    5  A    between atoms: C_12  and  N_13 
REMARK    6  A    between atoms: N_13  and  S_14 
ROOT
ATOM      1 CL   UNL d   1      70.945  75.550 106.351  0.00  0.00     0.000 Cl
ENDROOT
TORSDOF 6
ENDMDL
MODEL 14
REMARK VINA RESULT:      -0.8     29.504     29.504
REMARK  6 active torsions:
REMARK  status: ('A' for Active; 'I' for Inactive)
REMARK    1  A    between atoms: C_3  and  N_5 
REMARK    2  A    between atoms: N_5  and  C_6 
REMARK    3  A    between atoms: C_6  and  C_7 
REMARK    4  A    between atoms: C_7  and  C_9 
REMARK    5  A    between atoms: C_12  and  N_13 
REMARK    6  A    between atoms: N_13  and  S_14 
ROOT
ATOM      1 CL   UNL d   1      56.685  70.845  98.717  0.00  0.00     0.000 Cl
ENDROOT
TORSDOF 6
ENDMDL
MODEL 15
REMARK VINA RESULT:      -0.8     16.920     16.920
REMARK  6 active torsions:
REMARK  status: ('A' for Active; 'I' for Inactive)
REMARK    1  A    between atoms: C_3  and  N_5 
REMARK    2  A    between atoms: N_5  and  C_6 
REMARK    3  A    between atoms: C_6  and  C_7 
REMARK    4  A    between atoms: C_7  and  C_9 
REMARK    5  A    between atoms: C_12  and  N_13 
REMARK    6  A    between atoms: N_13  and  S_14 
ROOT
ATOM      1 CL   UNL d   1      65.377  74.928  87.346  0.00  0.00     0.000 Cl
ENDROOT
TORSDOF 6
ENDMDL
MODEL 16
REMARK VINA RESULT:      -0.8     28.965     28.965
REMARK  6 active torsions:
REMARK  status: ('A' for Active; 'I' for Inactive)
REMARK    1  A    between atoms: C_3  and  N_5 
REMARK    2  A    between atoms: N_5  and  C_6 
REMARK    3  A    between atoms: C_6  and  C_7 
REMARK    4  A    between atoms: C_7  and  C_9 
REMARK    5  A    between atoms: C_12  and  N_13 
REMARK    6  A    between atoms: N_13  and  S_14 
ROOT
ATOM      1 CL   UNL d   1      60.542  69.346  98.204  0.00  0.00     0.000 Cl
ENDROOT
TORSDOF 6
ENDMDL
MODEL 17
REMARK VINA RESULT:      -0.7     31.736     31.736
REMARK  6 active torsions:
REMARK  status: ('A' for Active; 'I' for Inactive)
REMARK    1  A    between atoms: C_3  and  N_5 
REMARK    2  A    between atoms: N_5  and  C_6 
REMARK    3  A    between atoms: C_6  and  C_7 
REMARK    4  A    between atoms: C_7  and  C_9 
REMARK    5  A    between atoms: C_12  and  N_13 
REMARK    6  A    between atoms: N_13  and  S_14 
ROOT
ATOM      1 CL   UNL d   1      68.901  69.032 102.562  0.00  0.00     0.000 Cl
ENDROOT
TORSDOF 6
ENDMDL
MODEL 18
REMARK VINA RESULT:      -0.7     21.347     21.347
REMARK  6 active torsions:
REMARK  status: ('A' for Active; 'I' for Inactive)
REMARK    1  A    between atoms: C_3  and  N_5 
REMARK    2  A    between atoms: N_5  and  C_6 
REMARK    3  A    between atoms: C_6  and  C_7 
REMARK    4  A    between atoms: C_7  and  C_9 
REMARK    5  A    between atoms: C_12  and  N_13 
REMARK    6  A    between atoms: N_13  and  S_14 
ROOT
ATOM      1 CL   UNL d   1      63.925  72.078  90.683  0.00  0.00     0.000 Cl
ENDROOT
TORSDOF 6
ENDMDL
MODEL 19
REMARK VINA RESULT:      -0.7     27.498     27.498
REMARK  6 active torsions:
REMARK  status: ('A' for Active; 'I' for Inactive)
REMARK    1  A    between atoms: C_3  and  N_5 
REMARK    2  A    between atoms: N_5  and  C_6 
REMARK    3  A    between atoms: C_6  and  C_7 
REMARK    4  A    between atoms: C_7  and  C_9 
REMARK    5  A    between atoms: C_12  and  N_13 
REMARK    6  A    between atoms: N_13  and  S_14 
ROOT
ATOM      1 CL   UNL d   1      75.555  80.085 102.472  0.00  0.00     0.000 Cl
ENDROOT
TORSDOF 6
ENDMDL
MODEL 20
REMARK VINA RESULT:      -0.7     18.742     18.742
REMARK  6 active torsions:
REMARK  status: ('A' for Active; 'I' for Inactive)
REMARK    1  A    between atoms: C_3  and  N_5 
REMARK    2  A    between atoms: N_5  and  C_6 
REMARK    3  A    between atoms: C_6  and  C_7 
REMARK    4  A    between atoms: C_7  and  C_9 
REMARK    5  A    between atoms: C_12  and  N_13 
REMARK    6  A    between atoms: N_13  and  S_14 
ROOT
ATOM      1 CL   UNL d   1      59.064  72.178  81.031  0.00  0.00     0.000 Cl
ENDROOT
TORSDOF 6
ENDMDL
