MODEL 1
REMARK VINA RESULT:      -6.4      0.000      0.000
REMARK  4 active torsions:
REMARK  status: ('A' for Active; 'I' for Inactive)
REMARK    1  A    between atoms: C_2  and  C_3 
REMARK    2  A    between atoms: C_2  and  C_6 
REMARK    3  A    between atoms: C_9  and  C_12 
REMARK    4  A    between atoms: C_12  and  C_14 
ROOT
ATOM      1  C   UNL d   1      76.132  70.150  89.354  0.00  0.00     0.002 A 
ATOM      2  C   UNL d   1      76.219  69.813  87.998  0.00  0.00    -0.000 A 
ATOM      3  C   UNL d   1      76.947  68.705  87.561  0.00  0.00     0.003 A 
ATOM      4  C   UNL d   1      77.619  67.890  88.472  0.00  0.00     0.040 A 
ATOM      5  C   UNL d   1      77.542  68.212  89.819  0.00  0.00     0.003 A 
ATOM      6  C   UNL d   1      76.811  69.322  90.246  0.00  0.00    -0.000 A 
ENDROOT
BRANCH   4   7
ATOM      7  C   UNL d   1      78.375  66.725  87.935  0.00  0.00     0.201 C 
ATOM      8  O   UNL d   1      78.466  66.679  86.704  0.00  0.00    -0.286 OA
BRANCH   7   9
ATOM      9  C   UNL d   1      78.990  65.678  88.748  0.00  0.00     0.068 A 
ATOM     10  C   UNL d   1      78.609  64.347  88.717  0.00  0.00     0.010 A 
ATOM     11  C   UNL d   1      79.343  63.514  89.588  0.00  0.00     0.008 A 
ATOM     12  C   UNL d   1      80.278  64.237  90.272  0.00  0.00     0.035 A 
ATOM     13  S   UNL d   1      80.269  65.881  89.871  0.00  0.00    -0.083 SA
ENDBRANCH   7   9
ENDBRANCH   4   7
BRANCH   1  14
ATOM     14  C   UNL d   1      75.349  71.334  89.777  0.00  0.00     0.043 C 
ATOM     15  C   UNL d   1      75.983  72.739  89.601  0.00  0.00     0.037 C 
BRANCH  14  16
ATOM     16  C   UNL d   1      73.913  71.169  90.388  0.00  0.00     0.207 C 
ATOM     17  O   UNL d   1      73.529  72.069  91.197  0.00  0.00    -0.644 OA
ATOM     18  O   UNL d   1      73.249  70.150  90.025  0.00  0.00    -0.644 OA
ENDBRANCH  14  16
ENDBRANCH   1  14
TORSDOF 4
ENDMDL
MODEL 2
REMARK VINA RESULT:      -6.3      2.834      7.139
REMARK  4 active torsions:
REMARK  status: ('A' for Active; 'I' for Inactive)
REMARK    1  A    between atoms: C_2  and  C_3 
REMARK    2  A    between atoms: C_2  and  C_6 
REMARK    3  A    between atoms: C_9  and  C_12 
REMARK    4  A    between atoms: C_12  and  C_14 
ROOT
ATOM      1  C   UNL d   1      77.072  68.380  88.391  0.00  0.00     0.002 A 
ATOM      2  C   UNL d   1      76.142  69.176  87.713  0.00  0.00    -0.000 A 
ATOM      3  C   UNL d   1      75.381  70.142  88.373  0.00  0.00     0.003 A 
ATOM      4  C   UNL d   1      75.525  70.346  89.746  0.00  0.00     0.040 A 
ATOM      5  C   UNL d   1      76.443  69.564  90.431  0.00  0.00     0.003 A 
ATOM      6  C   UNL d   1      77.200  68.601  89.761  0.00  0.00    -0.000 A 
ENDROOT
BRANCH   4   7
ATOM      7  C   UNL d   1      74.681  71.393  90.384  0.00  0.00     0.201 C 
ATOM      8  O   UNL d   1      73.578  71.008  90.784  0.00  0.00    -0.286 OA
BRANCH   7   9
ATOM      9  C   UNL d   1      75.068  72.791  90.557  0.00  0.00     0.068 A 
ATOM     10  C   UNL d   1      76.286  73.315  90.155  0.00  0.00     0.010 A 
ATOM     11  C   UNL d   1      76.441  74.692  90.424  0.00  0.00     0.008 A 
ATOM     12  C   UNL d   1      75.326  75.194  91.031  0.00  0.00     0.035 A 
ATOM     13  S   UNL d   1      74.121  74.029  91.271  0.00  0.00    -0.083 SA
ENDBRANCH   7   9
ENDBRANCH   4   7
BRANCH   1  14
ATOM     14  C   UNL d   1      77.860  67.366  87.653  0.00  0.00     0.043 C 
ATOM     15  C   UNL d   1      78.315  67.694  86.206  0.00  0.00     0.037 C 
BRANCH  14  16
ATOM     16  C   UNL d   1      78.225  65.993  88.319  0.00  0.00     0.207 C 
ATOM     17  O   UNL d   1      77.326  65.098  88.316  0.00  0.00    -0.644 OA
ATOM     18  O   UNL d   1      79.391  65.886  88.810  0.00  0.00    -0.644 OA
ENDBRANCH  14  16
ENDBRANCH   1  14
TORSDOF 4
ENDMDL
MODEL 3
REMARK VINA RESULT:      -6.2      2.035      3.228
REMARK  4 active torsions:
REMARK  status: ('A' for Active; 'I' for Inactive)
REMARK    1  A    between atoms: C_2  and  C_3 
REMARK    2  A    between atoms: C_2  and  C_6 
REMARK    3  A    between atoms: C_9  and  C_12 
REMARK    4  A    between atoms: C_12  and  C_14 
ROOT
ATOM      1  C   UNL d   1      75.074  72.473  90.349  0.00  0.00     0.002 A 
ATOM      2  C   UNL d   1      74.573  71.172  90.473  0.00  0.00    -0.000 A 
ATOM      3  C   UNL d   1      74.986  70.140  89.629  0.00  0.00     0.003 A 
ATOM      4  C   UNL d   1      75.924  70.376  88.623  0.00  0.00     0.040 A 
ATOM      5  C   UNL d   1      76.430  71.660  88.488  0.00  0.00     0.003 A 
ATOM      6  C   UNL d   1      76.010  72.685  89.337  0.00  0.00    -0.000 A 
ENDROOT
BRANCH   4   7
ATOM      7  C   UNL d   1      76.318  69.229  87.760  0.00  0.00     0.201 C 
ATOM      8  O   UNL d   1      75.816  69.221  86.632  0.00  0.00    -0.286 OA
BRANCH   7   9
ATOM      9  C   UNL d   1      77.228  68.157  88.157  0.00  0.00     0.068 A 
ATOM     10  C   UNL d   1      77.598  67.107  87.331  0.00  0.00     0.010 A 
ATOM     11  C   UNL d   1      78.488  66.188  87.928  0.00  0.00     0.008 A 
ATOM     12  C   UNL d   1      78.781  66.561  89.208  0.00  0.00     0.035 A 
ATOM     13  S   UNL d   1      77.999  67.987  89.678  0.00  0.00    -0.083 SA
ENDBRANCH   7   9
ENDBRANCH   4   7
BRANCH   1  14
ATOM     14  C   UNL d   1      74.610  73.540  91.265  0.00  0.00     0.043 C 
ATOM     15  C   UNL d   1      75.649  74.217  92.196  0.00  0.00     0.037 C 
BRANCH  14  16
ATOM     16  C   UNL d   1      73.102  73.973  91.292  0.00  0.00     0.207 C 
ATOM     17  O   UNL d   1      72.817  75.086  90.753  0.00  0.00    -0.644 OA
ATOM     18  O   UNL d   1      72.286  73.176  91.849  0.00  0.00    -0.644 OA
ENDBRANCH  14  16
ENDBRANCH   1  14
TORSDOF 4
ENDMDL
MODEL 4
REMARK VINA RESULT:      -6.1      2.665      6.892
REMARK  4 active torsions:
REMARK  status: ('A' for Active; 'I' for Inactive)
REMARK    1  A    between atoms: C_2  and  C_3 
REMARK    2  A    between atoms: C_2  and  C_6 
REMARK    3  A    between atoms: C_9  and  C_12 
REMARK    4  A    between atoms: C_12  and  C_14 
ROOT
ATOM      1  C   UNL d   1      78.811  66.172  89.199  0.00  0.00     0.002 A 
ATOM      2  C   UNL d   1      78.389  67.203  90.047  0.00  0.00    -0.000 A 
ATOM      3  C   UNL d   1      77.534  68.215  89.606  0.00  0.00     0.003 A 
ATOM      4  C   UNL d   1      77.067  68.229  88.291  0.00  0.00     0.040 A 
ATOM      5  C   UNL d   1      77.477  67.214  87.440  0.00  0.00     0.003 A 
ATOM      6  C   UNL d   1      78.332  66.207  87.890  0.00  0.00    -0.000 A 
ENDROOT
BRANCH   4   7
ATOM      7  C   UNL d   1      76.158  69.338  87.890  0.00  0.00     0.201 C 
ATOM      8  O   UNL d   1      75.627  69.209  86.783  0.00  0.00    -0.286 OA
BRANCH   7   9
ATOM      9  C   UNL d   1      75.871  70.520  88.700  0.00  0.00     0.068 A 
ATOM     10  C   UNL d   1      76.432  71.767  88.479  0.00  0.00     0.010 A 
ATOM     11  C   UNL d   1      76.008  72.762  89.387  0.00  0.00     0.008 A 
ATOM     12  C   UNL d   1      75.124  72.245  90.290  0.00  0.00     0.035 A 
ATOM     13  S   UNL d   1      74.813  70.599  90.046  0.00  0.00    -0.083 SA
ENDBRANCH   7   9
ENDBRANCH   4   7
BRANCH   1  14
ATOM     14  C   UNL d   1      79.719  65.118  89.706  0.00  0.00     0.043 C 
ATOM     15  C   UNL d   1      81.101  65.542  90.270  0.00  0.00     0.037 C 
BRANCH  14  16
ATOM     16  C   UNL d   1      79.293  63.608  89.673  0.00  0.00     0.207 C 
ATOM     17  O   UNL d   1      79.491  62.981  88.587  0.00  0.00    -0.644 OA
ATOM     18  O   UNL d   1      78.783  63.133  90.734  0.00  0.00    -0.644 OA
ENDBRANCH  14  16
ENDBRANCH   1  14
TORSDOF 4
ENDMDL
MODEL 5
REMARK VINA RESULT:      -6.1      3.031      5.429
REMARK  4 active torsions:
REMARK  status: ('A' for Active; 'I' for Inactive)
REMARK    1  A    between atoms: C_2  and  C_3 
REMARK    2  A    between atoms: C_2  and  C_6 
REMARK    3  A    between atoms: C_9  and  C_12 
REMARK    4  A    between atoms: C_12  and  C_14 
ROOT
ATOM      1  C   UNL d   1      75.139  74.592  90.681  0.00  0.00     0.002 A 
ATOM      2  C   UNL d   1      76.055  73.890  89.889  0.00  0.00    -0.000 A 
ATOM      3  C   UNL d   1      75.909  72.526  89.630  0.00  0.00     0.003 A 
ATOM      4  C   UNL d   1      74.831  71.812  90.158  0.00  0.00     0.040 A 
ATOM      5  C   UNL d   1      73.916  72.496  90.944  0.00  0.00     0.003 A 
ATOM      6  C   UNL d   1      74.072  73.860  91.197  0.00  0.00    -0.000 A 
ENDROOT
BRANCH   4   7
ATOM      7  C   UNL d   1      74.738  70.361  89.841  0.00  0.00     0.201 C 
ATOM      8  O   UNL d   1      73.741  69.787  90.290  0.00  0.00    -0.286 OA
BRANCH   7   9
ATOM      9  C   UNL d   1      75.719  69.610  89.060  0.00  0.00     0.068 A 
ATOM     10  C   UNL d   1      75.613  69.376  87.699  0.00  0.00     0.010 A 
ATOM     11  C   UNL d   1      76.679  68.625  87.157  0.00  0.00     0.008 A 
ATOM     12  C   UNL d   1      77.583  68.301  88.127  0.00  0.00     0.035 A 
ATOM     13  S   UNL d   1      77.155  68.887  89.655  0.00  0.00    -0.083 SA
ENDBRANCH   7   9
ENDBRANCH   4   7
BRANCH   1  14
ATOM     14  C   UNL d   1      75.331  76.039  90.932  0.00  0.00     0.043 C 
ATOM     15  C   UNL d   1      76.718  76.525  91.428  0.00  0.00     0.037 C 
BRANCH  14  16
ATOM     16  C   UNL d   1      74.158  77.056  90.700  0.00  0.00     0.207 C 
ATOM     17  O   UNL d   1      73.988  77.946  91.589  0.00  0.00    -0.644 OA
ATOM     18  O   UNL d   1      73.472  76.908  89.642  0.00  0.00    -0.644 OA
ENDBRANCH  14  16
ENDBRANCH   1  14
TORSDOF 4
ENDMDL
MODEL 6
REMARK VINA RESULT:      -6.0      3.918      8.193
REMARK  4 active torsions:
REMARK  status: ('A' for Active; 'I' for Inactive)
REMARK    1  A    between atoms: C_2  and  C_3 
REMARK    2  A    between atoms: C_2  and  C_6 
REMARK    3  A    between atoms: C_9  and  C_12 
REMARK    4  A    between atoms: C_12  and  C_14 
ROOT
ATOM      1  C   UNL d   1      75.810  70.420  88.619  0.00  0.00     0.002 A 
ATOM      2  C   UNL d   1      76.337  71.714  88.690  0.00  0.00    -0.000 A 
ATOM      3  C   UNL d   1      75.873  72.648  89.618  0.00  0.00     0.003 A 
ATOM      4  C   UNL d   1      74.857  72.316  90.514  0.00  0.00     0.040 A 
ATOM      5  C   UNL d   1      74.325  71.037  90.456  0.00  0.00     0.003 A 
ATOM      6  C   UNL d   1      74.796  70.110  89.525  0.00  0.00    -0.000 A 
ENDROOT
BRANCH   4   7
ATOM      7  C   UNL d   1      74.412  73.362  91.476  0.00  0.00     0.201 C 
ATOM      8  O   UNL d   1      74.885  73.267  92.613  0.00  0.00    -0.286 OA
BRANCH   7   9
ATOM      9  C   UNL d   1      73.485  74.447  91.164  0.00  0.00     0.068 A 
ATOM     10  C   UNL d   1      72.108  74.348  91.272  0.00  0.00     0.010 A 
ATOM     11  C   UNL d   1      71.413  75.524  90.917  0.00  0.00     0.008 A 
ATOM     12  C   UNL d   1      72.286  76.505  90.541  0.00  0.00     0.035 A 
ATOM     13  S   UNL d   1      73.904  76.016  90.615  0.00  0.00    -0.083 SA
ENDBRANCH   7   9
ENDBRANCH   4   7
BRANCH   1  14
ATOM     14  C   UNL d   1      76.331  69.459  87.620  0.00  0.00     0.043 C 
ATOM     15  C   UNL d   1      75.742  69.494  86.185  0.00  0.00     0.037 C 
BRANCH  14  16
ATOM     16  C   UNL d   1      77.451  68.429  88.005  0.00  0.00     0.207 C 
ATOM     17  O   UNL d   1      78.292  68.135  87.101  0.00  0.00    -0.644 OA
ATOM     18  O   UNL d   1      77.428  67.972  89.189  0.00  0.00    -0.644 OA
ENDBRANCH  14  16
ENDBRANCH   1  14
TORSDOF 4
ENDMDL
MODEL 7
REMARK VINA RESULT:      -5.9      3.568      8.072
REMARK  4 active torsions:
REMARK  status: ('A' for Active; 'I' for Inactive)
REMARK    1  A    between atoms: C_2  and  C_3 
REMARK    2  A    between atoms: C_2  and  C_6 
REMARK    3  A    between atoms: C_9  and  C_12 
REMARK    4  A    between atoms: C_12  and  C_14 
ROOT
ATOM      1  C   UNL d   1      76.105  70.316  88.985  0.00  0.00     0.002 A 
ATOM      2  C   UNL d   1      74.988  70.016  89.774  0.00  0.00    -0.000 A 
ATOM      3  C   UNL d   1      74.282  71.008  90.456  0.00  0.00     0.003 A 
ATOM      4  C   UNL d   1      74.671  72.345  90.373  0.00  0.00     0.040 A 
ATOM      5  C   UNL d   1      75.776  72.657  89.595  0.00  0.00     0.003 A 
ATOM      6  C   UNL d   1      76.476  71.658  88.916  0.00  0.00    -0.000 A 
ENDROOT
BRANCH   4   7
ATOM      7  C   UNL d   1      73.871  73.349  91.127  0.00  0.00     0.201 C 
ATOM      8  O   UNL d   1      72.765  72.959  91.511  0.00  0.00    -0.286 OA
BRANCH   7   9
ATOM      9  C   UNL d   1      74.304  74.712  91.425  0.00  0.00     0.068 A 
ATOM     10  C   UNL d   1      74.126  75.787  90.570  0.00  0.00     0.010 A 
ATOM     11  C   UNL d   1      74.624  77.011  91.068  0.00  0.00     0.008 A 
ATOM     12  C   UNL d   1      75.178  76.840  92.304  0.00  0.00     0.035 A 
ATOM     13  S   UNL d   1      75.097  75.240  92.850  0.00  0.00    -0.083 SA
ENDBRANCH   7   9
ENDBRANCH   4   7
BRANCH   1  14
ATOM     14  C   UNL d   1      76.827  69.234  88.277  0.00  0.00     0.043 C 
ATOM     15  C   UNL d   1      77.867  68.399  89.070  0.00  0.00     0.037 C 
BRANCH  14  16
ATOM     16  C   UNL d   1      76.546  68.942  86.761  0.00  0.00     0.207 C 
ATOM     17  O   UNL d   1      77.414  68.253  86.141  0.00  0.00    -0.644 OA
ATOM     18  O   UNL d   1      75.474  69.416  86.274  0.00  0.00    -0.644 OA
ENDBRANCH  14  16
ENDBRANCH   1  14
TORSDOF 4
ENDMDL
MODEL 8
REMARK VINA RESULT:      -5.8     24.526     25.946
REMARK  4 active torsions:
REMARK  status: ('A' for Active; 'I' for Inactive)
REMARK    1  A    between atoms: C_2  and  C_3 
REMARK    2  A    between atoms: C_2  and  C_6 
REMARK    3  A    between atoms: C_9  and  C_12 
REMARK    4  A    between atoms: C_12  and  C_14 
ROOT
ATOM      1  C   UNL d   1      63.377  89.103  91.852  0.00  0.00     0.002 A 
ATOM      2  C   UNL d   1      63.281  89.175  90.458  0.00  0.00    -0.000 A 
ATOM      3  C   UNL d   1      62.339  88.431  89.746  0.00  0.00     0.003 A 
ATOM      4  C   UNL d   1      61.453  87.582  90.410  0.00  0.00     0.040 A 
ATOM      5  C   UNL d   1      61.537  87.500  91.792  0.00  0.00     0.003 A 
ATOM      6  C   UNL d   1      62.483  88.248  92.495  0.00  0.00    -0.000 A 
ENDROOT
BRANCH   4   7
ATOM      7  C   UNL d   1      60.474  86.819  89.587  0.00  0.00     0.201 C 
ATOM      8  O   UNL d   1      60.917  86.370  88.525  0.00  0.00    -0.286 OA
BRANCH   7   9
ATOM      9  C   UNL d   1      59.079  86.582  89.951  0.00  0.00     0.068 A 
ATOM     10  C   UNL d   1      58.300  87.477  90.665  0.00  0.00     0.010 A 
ATOM     11  C   UNL d   1      56.980  87.036  90.900  0.00  0.00     0.008 A 
ATOM     12  C   UNL d   1      56.780  85.800  90.355  0.00  0.00     0.035 A 
ATOM     13  S   UNL d   1      58.153  85.189  89.577  0.00  0.00    -0.083 SA
ENDBRANCH   7   9
ENDBRANCH   4   7
BRANCH   1  14
ATOM     14  C   UNL d   1      64.392  89.909  92.570  0.00  0.00     0.043 C 
ATOM     15  C   UNL d   1      65.663  89.194  93.098  0.00  0.00     0.037 C 
BRANCH  14  16
ATOM     16  C   UNL d   1      64.184  91.448  92.790  0.00  0.00     0.207 C 
ATOM     17  O   UNL d   1      65.135  92.081  93.341  0.00  0.00    -0.644 OA
ATOM     18  O   UNL d   1      63.080  91.940  92.399  0.00  0.00    -0.644 OA
ENDBRANCH  14  16
ENDBRANCH   1  14
TORSDOF 4
ENDMDL
MODEL 9
REMARK VINA RESULT:      -5.7     12.701     15.721
REMARK  4 active torsions:
REMARK  status: ('A' for Active; 'I' for Inactive)
REMARK    1  A    between atoms: C_2  and  C_3 
REMARK    2  A    between atoms: C_2  and  C_6 
REMARK    3  A    between atoms: C_9  and  C_12 
REMARK    4  A    between atoms: C_12  and  C_14 
ROOT
ATOM      1  C   UNL d   1      82.792  81.212  95.637  0.00  0.00     0.002 A 
ATOM      2  C   UNL d   1      82.160  80.442  94.654  0.00  0.00    -0.000 A 
ATOM      3  C   UNL d   1      80.770  80.365  94.560  0.00  0.00     0.003 A 
ATOM      4  C   UNL d   1      79.956  81.062  95.455  0.00  0.00     0.040 A 
ATOM      5  C   UNL d   1      80.569  81.829  96.435  0.00  0.00     0.003 A 
ATOM      6  C   UNL d   1      81.960  81.899  96.520  0.00  0.00    -0.000 A 
ENDROOT
BRANCH   4   7
ATOM      7  C   UNL d   1      78.481  80.934  95.295  0.00  0.00     0.201 C 
ATOM      8  O   UNL d   1      77.820  81.174  96.310  0.00  0.00    -0.286 OA
BRANCH   7   9
ATOM      9  C   UNL d   1      77.802  80.556  94.058  0.00  0.00     0.068 A 
ATOM     10  C   UNL d   1      77.403  81.458  93.086  0.00  0.00     0.010 A 
ATOM     11  C   UNL d   1      76.764  80.865  91.975  0.00  0.00     0.008 A 
ATOM     12  C   UNL d   1      76.690  79.510  92.127  0.00  0.00     0.035 A 
ATOM     13  S   UNL d   1      77.375  78.968  93.576  0.00  0.00    -0.083 SA
ENDBRANCH   7   9
ENDBRANCH   4   7
BRANCH   1  14
ATOM     14  C   UNL d   1      84.270  81.267  95.703  0.00  0.00     0.043 C 
ATOM     15  C   UNL d   1      85.083  80.737  94.492  0.00  0.00     0.037 C 
BRANCH  14  16
ATOM     16  C   UNL d   1      84.996  81.847  96.967  0.00  0.00     0.207 C 
ATOM     17  O   UNL d   1      84.829  83.082  97.207  0.00  0.00    -0.644 OA
ATOM     18  O   UNL d   1      85.694  81.036  97.651  0.00  0.00    -0.644 OA
ENDBRANCH  14  16
ENDBRANCH   1  14
TORSDOF 4
ENDMDL
MODEL 10
REMARK VINA RESULT:      -5.7     14.574     16.982
REMARK  4 active torsions:
REMARK  status: ('A' for Active; 'I' for Inactive)
REMARK    1  A    between atoms: C_2  and  C_3 
REMARK    2  A    between atoms: C_2  and  C_6 
REMARK    3  A    between atoms: C_9  and  C_12 
REMARK    4  A    between atoms: C_12  and  C_14 
ROOT
ATOM      1  C   UNL d   1      63.739  72.616  93.997  0.00  0.00     0.002 A 
ATOM      2  C   UNL d   1      64.685  71.879  94.719  0.00  0.00    -0.000 A 
ATOM      3  C   UNL d   1      64.425  71.412  96.009  0.00  0.00     0.003 A 
ATOM      4  C   UNL d   1      63.200  71.669  96.625  0.00  0.00     0.040 A 
ATOM      5  C   UNL d   1      62.253  72.398  95.922  0.00  0.00     0.003 A 
ATOM      6  C   UNL d   1      62.523  72.861  94.632  0.00  0.00    -0.000 A 
ENDROOT
BRANCH   4   7
ATOM      7  C   UNL d   1      62.992  71.141  98.002  0.00  0.00     0.201 C 
ATOM      8  O   UNL d   1      64.024  70.874  98.625  0.00  0.00    -0.286 OA
BRANCH   7   9
ATOM      9  C   UNL d   1      61.690  70.930  98.630  0.00  0.00     0.068 A 
ATOM     10  C   UNL d   1      60.866  69.849  98.364  0.00  0.00     0.010 A 
ATOM     11  C   UNL d   1      59.654  69.853  99.089  0.00  0.00     0.008 A 
ATOM     12  C   UNL d   1      59.581  70.949  99.900  0.00  0.00     0.035 A 
ATOM     13  S   UNL d   1      60.942  71.948  99.789  0.00  0.00    -0.083 SA
ENDBRANCH   7   9
ENDBRANCH   4   7
BRANCH   1  14
ATOM     14  C   UNL d   1      64.054  73.093  92.631  0.00  0.00     0.043 C 
ATOM     15  C   UNL d   1      65.055  74.267  92.472  0.00  0.00     0.037 C 
BRANCH  14  16
ATOM     16  C   UNL d   1      63.391  72.424  91.375  0.00  0.00     0.207 C 
ATOM     17  O   UNL d   1      62.250  72.860  91.031  0.00  0.00    -0.644 OA
ATOM     18  O   UNL d   1      64.048  71.501  90.803  0.00  0.00    -0.644 OA
ENDBRANCH  14  16
ENDBRANCH   1  14
TORSDOF 4
ENDMDL
MODEL 11
REMARK VINA RESULT:      -5.6     24.389     25.467
REMARK  4 active torsions:
REMARK  status: ('A' for Active; 'I' for Inactive)
REMARK    1  A    between atoms: C_2  and  C_3 
REMARK    2  A    between atoms: C_2  and  C_6 
REMARK    3  A    between atoms: C_9  and  C_12 
REMARK    4  A    between atoms: C_12  and  C_14 
ROOT
ATOM      1  C   UNL d   1      63.250  89.326  92.294  0.00  0.00     0.002 A 
ATOM      2  C   UNL d   1      62.235  88.451  92.696  0.00  0.00    -0.000 A 
ATOM      3  C   UNL d   1      61.530  87.670  91.777  0.00  0.00     0.003 A 
ATOM      4  C   UNL d   1      61.820  87.739  90.414  0.00  0.00     0.040 A 
ATOM      5  C   UNL d   1      62.825  88.602  90.002  0.00  0.00     0.003 A 
ATOM      6  C   UNL d   1      63.523  89.379  90.928  0.00  0.00    -0.000 A 
ENDROOT
BRANCH   4   7
ATOM      7  C   UNL d   1      61.029  86.879  89.492  0.00  0.00     0.201 C 
ATOM      8  O   UNL d   1      61.222  87.081  88.289  0.00  0.00    -0.286 OA
BRANCH   7   9
ATOM      9  C   UNL d   1      60.079  85.852  89.913  0.00  0.00     0.068 A 
ATOM     10  C   UNL d   1      58.704  85.982  89.820  0.00  0.00     0.010 A 
ATOM     11  C   UNL d   1      57.983  84.862  90.288  0.00  0.00     0.008 A 
ATOM     12  C   UNL d   1      58.835  83.892  90.732  0.00  0.00     0.035 A 
ATOM     13  S   UNL d   1      60.465  84.324  90.587  0.00  0.00    -0.083 SA
ENDBRANCH   7   9
ENDBRANCH   4   7
BRANCH   1  14
ATOM     14  C   UNL d   1      63.974  90.137  93.301  0.00  0.00     0.043 C 
ATOM     15  C   UNL d   1      65.455  89.788  93.603  0.00  0.00     0.037 C 
BRANCH  14  16
ATOM     16  C   UNL d   1      63.258  91.320  94.042  0.00  0.00     0.207 C 
ATOM     17  O   UNL d   1      63.744  91.672  95.160  0.00  0.00    -0.644 OA
ATOM     18  O   UNL d   1      62.249  91.832  93.465  0.00  0.00    -0.644 OA
ENDBRANCH  14  16
ENDBRANCH   1  14
TORSDOF 4
ENDMDL
MODEL 12
REMARK VINA RESULT:      -5.5     13.800     16.127
REMARK  4 active torsions:
REMARK  status: ('A' for Active; 'I' for Inactive)
REMARK    1  A    between atoms: C_2  and  C_3 
REMARK    2  A    between atoms: C_2  and  C_6 
REMARK    3  A    between atoms: C_9  and  C_12 
REMARK    4  A    between atoms: C_12  and  C_14 
ROOT
ATOM      1  C   UNL d   1      83.265  81.214  95.994  0.00  0.00     0.002 A 
ATOM      2  C   UNL d   1      82.938  80.116  95.189  0.00  0.00    -0.000 A 
ATOM      3  C   UNL d   1      81.616  79.816  94.856  0.00  0.00     0.003 A 
ATOM      4  C   UNL d   1      80.567  80.610  95.320  0.00  0.00     0.040 A 
ATOM      5  C   UNL d   1      80.876  81.701  96.119  0.00  0.00     0.003 A 
ATOM      6  C   UNL d   1      82.201  81.993  96.447  0.00  0.00    -0.000 A 
ENDROOT
BRANCH   4   7
ATOM      7  C   UNL d   1      79.183  80.231  94.925  0.00  0.00     0.201 C 
ATOM      8  O   UNL d   1      78.940  79.020  94.954  0.00  0.00    -0.286 OA
BRANCH   7   9
ATOM      9  C   UNL d   1      78.139  81.171  94.523  0.00  0.00     0.068 A 
ATOM     10  C   UNL d   1      77.736  81.368  93.213  0.00  0.00     0.010 A 
ATOM     11  C   UNL d   1      76.710  82.327  93.061  0.00  0.00     0.008 A 
ATOM     12  C   UNL d   1      76.351  82.844  94.273  0.00  0.00     0.035 A 
ATOM     13  S   UNL d   1      77.231  82.188  95.561  0.00  0.00    -0.083 SA
ENDBRANCH   7   9
ENDBRANCH   4   7
BRANCH   1  14
ATOM     14  C   UNL d   1      84.680  81.498  96.325  0.00  0.00     0.043 C 
ATOM     15  C   UNL d   1      84.986  82.596  97.377  0.00  0.00     0.037 C 
BRANCH  14  16
ATOM     16  C   UNL d   1      85.841  80.706  95.627  0.00  0.00     0.207 C 
ATOM     17  O   UNL d   1      86.257  79.662  96.217  0.00  0.00    -0.644 OA
ATOM     18  O   UNL d   1      86.274  81.172  94.528  0.00  0.00    -0.644 OA
ENDBRANCH  14  16
ENDBRANCH   1  14
TORSDOF 4
ENDMDL
MODEL 13
REMARK VINA RESULT:      -5.5     23.754     25.362
REMARK  4 active torsions:
REMARK  status: ('A' for Active; 'I' for Inactive)
REMARK    1  A    between atoms: C_2  and  C_3 
REMARK    2  A    between atoms: C_2  and  C_6 
REMARK    3  A    between atoms: C_9  and  C_12 
REMARK    4  A    between atoms: C_12  and  C_14 
ROOT
ATOM      1  C   UNL d   1      63.013  89.693  92.739  0.00  0.00     0.002 A 
ATOM      2  C   UNL d   1      63.475  89.692  91.418  0.00  0.00    -0.000 A 
ATOM      3  C   UNL d   1      62.909  88.871  90.441  0.00  0.00     0.003 A 
ATOM      4  C   UNL d   1      61.853  88.014  90.756  0.00  0.00     0.040 A 
ATOM      5  C   UNL d   1      61.385  88.004  92.062  0.00  0.00     0.003 A 
ATOM      6  C   UNL d   1      61.958  88.830  93.031  0.00  0.00    -0.000 A 
ENDROOT
BRANCH   4   7
ATOM      7  C   UNL d   1      61.299  87.167  89.665  0.00  0.00     0.201 C 
ATOM      8  O   UNL d   1      61.563  87.544  88.519  0.00  0.00    -0.286 OA
BRANCH   7   9
ATOM      9  C   UNL d   1      60.494  85.964  89.865  0.00  0.00     0.068 A 
ATOM     10  C   UNL d   1      61.001  84.756  90.315  0.00  0.00     0.010 A 
ATOM     11  C   UNL d   1      60.038  83.731  90.433  0.00  0.00     0.008 A 
ATOM     12  C   UNL d   1      58.803  84.186  90.067  0.00  0.00     0.035 A 
ATOM     13  S   UNL d   1      58.809  85.810  89.592  0.00  0.00    -0.083 SA
ENDBRANCH   7   9
ENDBRANCH   4   7
BRANCH   1  14
ATOM     14  C   UNL d   1      63.641  90.580  93.745  0.00  0.00     0.043 C 
ATOM     15  C   UNL d   1      62.778  91.069  94.938  0.00  0.00     0.037 C 
BRANCH  14  16
ATOM     16  C   UNL d   1      65.142  91.014  93.606  0.00  0.00     0.207 C 
ATOM     17  O   UNL d   1      65.361  92.217  93.268  0.00  0.00    -0.644 OA
ATOM     18  O   UNL d   1      66.020  90.127  93.843  0.00  0.00    -0.644 OA
ENDBRANCH  14  16
ENDBRANCH   1  14
TORSDOF 4
ENDMDL
MODEL 14
REMARK VINA RESULT:      -5.5      1.967      2.922
REMARK  4 active torsions:
REMARK  status: ('A' for Active; 'I' for Inactive)
REMARK    1  A    between atoms: C_2  and  C_3 
REMARK    2  A    between atoms: C_2  and  C_6 
REMARK    3  A    between atoms: C_9  and  C_12 
REMARK    4  A    between atoms: C_12  and  C_14 
ROOT
ATOM      1  C   UNL d   1      77.173  68.446  88.153  0.00  0.00     0.002 A 
ATOM      2  C   UNL d   1      77.637  67.494  87.238  0.00  0.00    -0.000 A 
ATOM      3  C   UNL d   1      78.323  66.351  87.651  0.00  0.00     0.003 A 
ATOM      4  C   UNL d   1      78.570  66.118  89.005  0.00  0.00     0.040 A 
ATOM      5  C   UNL d   1      78.115  67.053  89.922  0.00  0.00     0.003 A 
ATOM      6  C   UNL d   1      77.431  68.194  89.500  0.00  0.00    -0.000 A 
ENDROOT
BRANCH   4   7
ATOM      7  C   UNL d   1      79.307  64.878  89.372  0.00  0.00     0.201 C 
ATOM      8  O   UNL d   1      79.249  63.966  88.542  0.00  0.00    -0.286 OA
BRANCH   7   9
ATOM      9  C   UNL d   1      80.063  64.688  90.608  0.00  0.00     0.068 A 
ATOM     10  C   UNL d   1      79.579  64.018  91.719  0.00  0.00     0.010 A 
ATOM     11  C   UNL d   1      80.486  63.958  92.799  0.00  0.00     0.008 A 
ATOM     12  C   UNL d   1      81.654  64.590  92.484  0.00  0.00     0.035 A 
ATOM     13  S   UNL d   1      81.655  65.240  90.922  0.00  0.00    -0.083 SA
ENDBRANCH   7   9
ENDBRANCH   4   7
BRANCH   1  14
ATOM     14  C   UNL d   1      76.449  69.646  87.674  0.00  0.00     0.043 C 
ATOM     15  C   UNL d   1      75.748  69.583  86.291  0.00  0.00     0.037 C 
BRANCH  14  16
ATOM     16  C   UNL d   1      76.394  70.950  88.545  0.00  0.00     0.207 C 
ATOM     17  O   UNL d   1      75.413  71.065  89.342  0.00  0.00    -0.644 OA
ATOM     18  O   UNL d   1      77.334  71.788  88.384  0.00  0.00    -0.644 OA
ENDBRANCH  14  16
ENDBRANCH   1  14
TORSDOF 4
ENDMDL
MODEL 15
REMARK VINA RESULT:      -5.4     15.885     19.273
REMARK  4 active torsions:
REMARK  status: ('A' for Active; 'I' for Inactive)
REMARK    1  A    between atoms: C_2  and  C_3 
REMARK    2  A    between atoms: C_2  and  C_6 
REMARK    3  A    between atoms: C_9  and  C_12 
REMARK    4  A    between atoms: C_12  and  C_14 
ROOT
ATOM      1  C   UNL d   1      59.004  71.381  99.198  0.00  0.00     0.002 A 
ATOM      2  C   UNL d   1      59.732  72.519  98.833  0.00  0.00    -0.000 A 
ATOM      3  C   UNL d   1      61.063  72.439  98.417  0.00  0.00     0.003 A 
ATOM      4  C   UNL d   1      61.715  71.208  98.351  0.00  0.00     0.040 A 
ATOM      5  C   UNL d   1      61.005  70.071  98.710  0.00  0.00     0.003 A 
ATOM      6  C   UNL d   1      59.676  70.162  99.124  0.00  0.00    -0.000 A 
ENDROOT
BRANCH   4   7
ATOM      7  C   UNL d   1      63.134  71.197  97.899  0.00  0.00     0.201 C 
ATOM      8  O   UNL d   1      63.964  70.942  98.777  0.00  0.00    -0.286 OA
BRANCH   7   9
ATOM      9  C   UNL d   1      63.579  71.461  96.533  0.00  0.00     0.068 A 
ATOM     10  C   UNL d   1      62.880  72.238  95.625  0.00  0.00     0.010 A 
ATOM     11  C   UNL d   1      63.502  72.355  94.363  0.00  0.00     0.008 A 
ATOM     12  C   UNL d   1      64.675  71.657  94.337  0.00  0.00     0.035 A 
ATOM     13  S   UNL d   1      65.016  70.880  95.801  0.00  0.00    -0.083 SA
ENDBRANCH   7   9
ENDBRANCH   4   7
BRANCH   1  14
ATOM     14  C   UNL d   1      57.594  71.509  99.633  0.00  0.00     0.043 C 
ATOM     15  C   UNL d   1      56.488  70.882  98.745  0.00  0.00     0.037 C 
BRANCH  14  16
ATOM     16  C   UNL d   1      57.230  72.262 100.961  0.00  0.00     0.207 C 
ATOM     17  O   UNL d   1      57.025  71.544 101.988  0.00  0.00    -0.644 OA
ATOM     18  O   UNL d   1      57.170  73.528 100.905  0.00  0.00    -0.644 OA
ENDBRANCH  14  16
ENDBRANCH   1  14
TORSDOF 4
ENDMDL
MODEL 16
REMARK VINA RESULT:      -5.4     13.938     14.783
REMARK  4 active torsions:
REMARK  status: ('A' for Active; 'I' for Inactive)
REMARK    1  A    between atoms: C_2  and  C_3 
REMARK    2  A    between atoms: C_2  and  C_6 
REMARK    3  A    between atoms: C_9  and  C_12 
REMARK    4  A    between atoms: C_12  and  C_14 
ROOT
ATOM      1  C   UNL d   1      77.399  81.611  93.989  0.00  0.00     0.002 A 
ATOM      2  C   UNL d   1      78.333  80.664  93.557  0.00  0.00    -0.000 A 
ATOM      3  C   UNL d   1      79.349  80.197  94.393  0.00  0.00     0.003 A 
ATOM      4  C   UNL d   1      79.465  80.667  95.702  0.00  0.00     0.040 A 
ATOM      5  C   UNL d   1      78.546  81.607  96.144  0.00  0.00     0.003 A 
ATOM      6  C   UNL d   1      77.534  82.067  95.299  0.00  0.00    -0.000 A 
ENDROOT
BRANCH   4   7
ATOM      7  C   UNL d   1      80.572  80.126  96.538  0.00  0.00     0.201 C 
ATOM      8  O   UNL d   1      80.216  79.455  97.512  0.00  0.00    -0.286 OA
BRANCH   7   9
ATOM      9  C   UNL d   1      81.995  80.335  96.281  0.00  0.00     0.068 A 
ATOM     10  C   UNL d   1      82.920  79.312  96.160  0.00  0.00     0.010 A 
ATOM     11  C   UNL d   1      84.239  79.751  95.912  0.00  0.00     0.008 A 
ATOM     12  C   UNL d   1      84.290  81.114  95.849  0.00  0.00     0.035 A 
ATOM     13  S   UNL d   1      82.782  81.845  96.084  0.00  0.00    -0.083 SA
ENDBRANCH   7   9
ENDBRANCH   4   7
BRANCH   1  14
ATOM     14  C   UNL d   1      76.336  82.080  93.070  0.00  0.00     0.043 C 
ATOM     15  C   UNL d   1      75.093  81.177  92.857  0.00  0.00     0.037 C 
BRANCH  14  16
ATOM     16  C   UNL d   1      76.467  83.458  92.330  0.00  0.00     0.207 C 
ATOM     17  O   UNL d   1      76.900  83.428  91.137  0.00  0.00    -0.644 OA
ATOM     18  O   UNL d   1      76.128  84.493  92.981  0.00  0.00    -0.644 OA
ENDBRANCH  14  16
ENDBRANCH   1  14
TORSDOF 4
ENDMDL
MODEL 17
REMARK VINA RESULT:      -5.4     11.029     13.844
REMARK  4 active torsions:
REMARK  status: ('A' for Active; 'I' for Inactive)
REMARK    1  A    between atoms: C_2  and  C_3 
REMARK    2  A    between atoms: C_2  and  C_6 
REMARK    3  A    between atoms: C_9  and  C_12 
REMARK    4  A    between atoms: C_12  and  C_14 
ROOT
ATOM      1  C   UNL d   1      83.568  80.041  95.282  0.00  0.00     0.002 A 
ATOM      2  C   UNL d   1      83.210  78.968  96.106  0.00  0.00    -0.000 A 
ATOM      3  C   UNL d   1      82.346  77.962  95.670  0.00  0.00     0.003 A 
ATOM      4  C   UNL d   1      81.806  77.996  94.384  0.00  0.00     0.040 A 
ATOM      5  C   UNL d   1      82.152  79.053  93.556  0.00  0.00     0.003 A 
ATOM      6  C   UNL d   1      83.017  80.054  94.002  0.00  0.00    -0.000 A 
ENDROOT
BRANCH   4   7
ATOM      7  C   UNL d   1      80.891  76.890  93.986  0.00  0.00     0.201 C 
ATOM      8  O   UNL d   1      81.249  75.760  94.334  0.00  0.00    -0.286 OA
BRANCH   7   9
ATOM      9  C   UNL d   1      79.648  77.060  93.238  0.00  0.00     0.068 A 
ATOM     10  C   UNL d   1      78.647  77.950  93.589  0.00  0.00     0.010 A 
ATOM     11  C   UNL d   1      77.534  77.942  92.719  0.00  0.00     0.008 A 
ATOM     12  C   UNL d   1      77.714  77.036  91.714  0.00  0.00     0.035 A 
ATOM     13  S   UNL d   1      79.190  76.214  91.819  0.00  0.00    -0.083 SA
ENDBRANCH   7   9
ENDBRANCH   4   7
BRANCH   1  14
ATOM     14  C   UNL d   1      84.488  81.088  95.783  0.00  0.00     0.043 C 
ATOM     15  C   UNL d   1      85.964  81.062  95.308  0.00  0.00     0.037 C 
BRANCH  14  16
ATOM     16  C   UNL d   1      83.980  82.196  96.771  0.00  0.00     0.207 C 
ATOM     17  O   UNL d   1      84.857  82.971  97.261  0.00  0.00    -0.644 OA
ATOM     18  O   UNL d   1      82.732  82.230  97.003  0.00  0.00    -0.644 OA
ENDBRANCH  14  16
ENDBRANCH   1  14
TORSDOF 4
ENDMDL
MODEL 18
REMARK VINA RESULT:      -5.2     13.242     16.616
REMARK  4 active torsions:
REMARK  status: ('A' for Active; 'I' for Inactive)
REMARK    1  A    between atoms: C_2  and  C_3 
REMARK    2  A    between atoms: C_2  and  C_6 
REMARK    3  A    between atoms: C_9  and  C_12 
REMARK    4  A    between atoms: C_12  and  C_14 
ROOT
ATOM      1  C   UNL d   1      70.927  71.141 101.189  0.00  0.00     0.002 A 
ATOM      2  C   UNL d   1      70.463  72.432 101.463  0.00  0.00    -0.000 A 
ATOM      3  C   UNL d   1      69.345  72.658 102.268  0.00  0.00     0.003 A 
ATOM      4  C   UNL d   1      68.646  71.589 102.831  0.00  0.00     0.040 A 
ATOM      5  C   UNL d   1      69.095  70.303 102.568  0.00  0.00     0.003 A 
ATOM      6  C   UNL d   1      70.214  70.088 101.762  0.00  0.00    -0.000 A 
ENDROOT
BRANCH   4   7
ATOM      7  C   UNL d   1      67.463  71.903 103.678  0.00  0.00     0.201 C 
ATOM      8  O   UNL d   1      67.724  72.331 104.807  0.00  0.00    -0.286 OA
BRANCH   7   9
ATOM      9  C   UNL d   1      66.071  71.739 103.267  0.00  0.00     0.068 A 
ATOM     10  C   UNL d   1      64.984  72.050 104.067  0.00  0.00     0.010 A 
ATOM     11  C   UNL d   1      63.732  71.810 103.460  0.00  0.00     0.008 A 
ATOM     12  C   UNL d   1      63.894  71.316 102.198  0.00  0.00     0.035 A 
ATOM     13  S   UNL d   1      65.519  71.146 101.756  0.00  0.00    -0.083 SA
ENDBRANCH   7   9
ENDBRANCH   4   7
BRANCH   1  14
ATOM     14  C   UNL d   1      72.117  70.945 100.330  0.00  0.00     0.043 C 
ATOM     15  C   UNL d   1      73.432  70.454 100.991  0.00  0.00     0.037 C 
BRANCH  14  16
ATOM     16  C   UNL d   1      72.049  71.228  98.788  0.00  0.00     0.207 C 
ATOM     17  O   UNL d   1      72.953  71.974  98.302  0.00  0.00    -0.644 OA
ATOM     18  O   UNL d   1      71.094  70.689  98.148  0.00  0.00    -0.644 OA
ENDBRANCH  14  16
ENDBRANCH   1  14
TORSDOF 4
ENDMDL
MODEL 19
REMARK VINA RESULT:      -5.2     24.281     26.252
REMARK  4 active torsions:
REMARK  status: ('A' for Active; 'I' for Inactive)
REMARK    1  A    between atoms: C_2  and  C_3 
REMARK    2  A    between atoms: C_2  and  C_6 
REMARK    3  A    between atoms: C_9  and  C_12 
REMARK    4  A    between atoms: C_12  and  C_14 
ROOT
ATOM      1  C   UNL d   1      63.573  90.254  95.040  0.00  0.00     0.002 A 
ATOM      2  C   UNL d   1      63.781  89.447  93.916  0.00  0.00    -0.000 A 
ATOM      3  C   UNL d   1      62.716  88.917  93.184  0.00  0.00     0.003 A 
ATOM      4  C   UNL d   1      61.397  89.178  93.556  0.00  0.00     0.040 A 
ATOM      5  C   UNL d   1      61.177  89.976  94.669  0.00  0.00     0.003 A 
ATOM      6  C   UNL d   1      62.248  90.502  95.393  0.00  0.00    -0.000 A 
ENDROOT
BRANCH   4   7
ATOM      7  C   UNL d   1      60.312  88.580  92.730  0.00  0.00     0.201 C 
ATOM      8  O   UNL d   1      59.173  88.984  92.985  0.00  0.00    -0.286 OA
BRANCH   7   9
ATOM      9  C   UNL d   1      60.511  87.584  91.681  0.00  0.00     0.068 A 
ATOM     10  C   UNL d   1      60.541  87.877  90.328  0.00  0.00     0.010 A 
ATOM     11  C   UNL d   1      60.747  86.754  89.496  0.00  0.00     0.008 A 
ATOM     12  C   UNL d   1      60.870  85.618  90.243  0.00  0.00     0.035 A 
ATOM     13  S   UNL d   1      60.740  85.900  91.906  0.00  0.00    -0.083 SA
ENDBRANCH   7   9
ENDBRANCH   4   7
BRANCH   1  14
ATOM     14  C   UNL d   1      64.730  90.797  95.789  0.00  0.00     0.043 C 
ATOM     15  C   UNL d   1      64.499  91.309  97.235  0.00  0.00     0.037 C 
BRANCH  14  16
ATOM     16  C   UNL d   1      66.155  90.853  95.133  0.00  0.00     0.207 C 
ATOM     17  O   UNL d   1      66.363  91.782  94.294  0.00  0.00    -0.644 OA
ATOM     18  O   UNL d   1      66.987  89.965  95.494  0.00  0.00    -0.644 OA
ENDBRANCH  14  16
ENDBRANCH   1  14
TORSDOF 4
ENDMDL
MODEL 20
REMARK VINA RESULT:      -5.2     22.297     25.693
REMARK  4 active torsions:
REMARK  status: ('A' for Active; 'I' for Inactive)
REMARK    1  A    between atoms: C_2  and  C_3 
REMARK    2  A    between atoms: C_2  and  C_6 
REMARK    3  A    between atoms: C_9  and  C_12 
REMARK    4  A    between atoms: C_12  and  C_14 
ROOT
ATOM      1  C   UNL d   1      70.081  87.299 101.367  0.00  0.00     0.002 A 
ATOM      2  C   UNL d   1      69.798  88.661 101.521  0.00  0.00    -0.000 A 
ATOM      3  C   UNL d   1      70.264  89.391 102.616  0.00  0.00     0.003 A 
ATOM      4  C   UNL d   1      71.037  88.777 103.603  0.00  0.00     0.040 A 
ATOM      5  C   UNL d   1      71.325  87.428 103.463  0.00  0.00     0.003 A 
ATOM      6  C   UNL d   1      70.854  86.707 102.365  0.00  0.00    -0.000 A 
ENDROOT
BRANCH   4   7
ATOM      7  C   UNL d   1      71.500  89.616 104.742  0.00  0.00     0.201 C 
ATOM      8  O   UNL d   1      70.715  89.692 105.693  0.00  0.00    -0.286 OA
BRANCH   7   9
ATOM      9  C   UNL d   1      72.777  90.323 104.796  0.00  0.00     0.068 A 
ATOM     10  C   UNL d   1      73.766  90.214 103.833  0.00  0.00     0.010 A 
ATOM     11  C   UNL d   1      74.917  90.991 104.095  0.00  0.00     0.008 A 
ATOM     12  C   UNL d   1      74.777  91.682 105.264  0.00  0.00     0.035 A 
ATOM     13  S   UNL d   1      73.293  91.400 106.027  0.00  0.00    -0.083 SA
ENDBRANCH   7   9
ENDBRANCH   4   7
BRANCH   1  14
ATOM     14  C   UNL d   1      69.567  86.561 100.190  0.00  0.00     0.043 C 
ATOM     15  C   UNL d   1      69.831  85.035 100.103  0.00  0.00     0.037 C 
BRANCH  14  16
ATOM     16  C   UNL d   1      68.774  87.307  99.060  0.00  0.00     0.207 C 
ATOM     17  O   UNL d   1      69.462  87.926  98.192  0.00  0.00    -0.644 OA
ATOM     18  O   UNL d   1      67.507  87.232  99.103  0.00  0.00    -0.644 OA
ENDBRANCH  14  16
ENDBRANCH   1  14
TORSDOF 4
ENDMDL
