MODEL 1
REMARK VINA RESULT:      -6.1      0.000      0.000
REMARK  1 active torsions:
REMARK  status: ('A' for Active; 'I' for Inactive)
REMARK    1  A    between atoms: C_6  and  C_12 
ROOT
ATOM      1  C   UNL d   1      85.887  80.956  95.323  0.00  0.00     0.161 C 
ATOM      2  N   UNL d   1      84.489  81.170  95.624  0.00  0.00    -0.182 N 
ATOM      3  N   UNL d   1      84.359  81.958  96.754  0.00  0.00    -0.059 NA
ATOM      4  N   UNL d   1      83.232  82.273  97.201  0.00  0.00    -0.110 NA
ATOM      5  C   UNL d   1      82.114  81.847  96.585  0.00  0.00     0.198 A 
ATOM      6  C   UNL d   1      80.756  82.005  96.808  0.00  0.00     0.172 A 
ATOM      7  N   UNL d   1      80.042  81.327  95.831  0.00  0.00    -0.218 NA
ATOM      8  C   UNL d   1      80.946  80.779  95.049  0.00  0.00     0.188 A 
ATOM      9  N   UNL d   1      82.215  81.070  95.470  0.00  0.00    -0.222 N 
ATOM     10  C   UNL d   1      83.403  80.670  94.902  0.00  0.00     0.355 A 
ATOM     11  O   UNL d   1      83.370  79.970  93.898  0.00  0.00    -0.244 OA
ENDROOT
BRANCH   6  12
ATOM     12  C   UNL d   1      80.144  82.761  97.890  0.00  0.00     0.287 C 
ATOM     13  O   UNL d   1      79.875  83.954  97.849  0.00  0.00    -0.269 OA
ATOM     14  N   UNL d   1      79.830  82.068  99.094  0.00  0.00    -0.056 NA
ENDBRANCH   6  12
TORSDOF 1
ENDMDL
MODEL 2
REMARK VINA RESULT:      -5.6      1.791      4.416
REMARK  1 active torsions:
REMARK  status: ('A' for Active; 'I' for Inactive)
REMARK    1  A    between atoms: C_6  and  C_12 
ROOT
ATOM      1  C   UNL d   1      79.581  82.849  97.745  0.00  0.00     0.161 C 
ATOM      2  N   UNL d   1      80.681  82.260  97.015  0.00  0.00    -0.182 N 
ATOM      3  N   UNL d   1      81.881  82.550  97.642  0.00  0.00    -0.059 NA
ATOM      4  N   UNL d   1      82.971  82.140  97.182  0.00  0.00    -0.110 NA
ATOM      5  C   UNL d   1      82.999  81.401  96.058  0.00  0.00     0.198 A 
ATOM      6  C   UNL d   1      83.997  80.807  95.303  0.00  0.00     0.172 A 
ATOM      7  N   UNL d   1      83.435  80.154  94.218  0.00  0.00    -0.218 NA
ATOM      8  C   UNL d   1      82.138  80.351  94.320  0.00  0.00     0.188 A 
ATOM      9  N   UNL d   1      81.831  81.102  95.421  0.00  0.00    -0.222 N 
ATOM     10  C   UNL d   1      80.585  81.504  95.845  0.00  0.00     0.355 A 
ATOM     11  O   UNL d   1      79.604  81.175  95.190  0.00  0.00    -0.244 OA
ENDROOT
BRANCH   6  12
ATOM     12  C   UNL d   1      85.424  80.847  95.583  0.00  0.00     0.287 C 
ATOM     13  O   UNL d   1      86.282  81.250  94.808  0.00  0.00    -0.269 OA
ATOM     14  N   UNL d   1      85.869  80.383  96.855  0.00  0.00    -0.056 NA
ENDBRANCH   6  12
TORSDOF 1
ENDMDL
MODEL 3
REMARK VINA RESULT:      -5.5      1.927      2.322
REMARK  1 active torsions:
REMARK  status: ('A' for Active; 'I' for Inactive)
REMARK    1  A    between atoms: C_6  and  C_12 
ROOT
ATOM      1  C   UNL d   1      83.762  77.138  95.813  0.00  0.00     0.161 C 
ATOM      2  N   UNL d   1      83.134  78.421  96.035  0.00  0.00    -0.182 N 
ATOM      3  N   UNL d   1      82.204  78.328  97.056  0.00  0.00    -0.059 NA
ATOM      4  N   UNL d   1      81.536  79.323  97.421  0.00  0.00    -0.110 NA
ATOM      5  C   UNL d   1      81.711  80.515  96.820  0.00  0.00     0.198 A 
ATOM      6  C   UNL d   1      81.157  81.775  96.972  0.00  0.00     0.172 A 
ATOM      7  N   UNL d   1      81.729  82.648  96.059  0.00  0.00    -0.218 NA
ATOM      8  C   UNL d   1      82.600  81.932  95.383  0.00  0.00     0.188 A 
ATOM      9  N   UNL d   1      82.621  80.632  95.812  0.00  0.00    -0.222 N 
ATOM     10  C   UNL d   1      83.401  79.603  95.340  0.00  0.00     0.355 A 
ATOM     11  O   UNL d   1      84.186  79.827  94.427  0.00  0.00    -0.244 OA
ENDROOT
BRANCH   6  12
ATOM     12  C   UNL d   1      80.131  82.154  97.931  0.00  0.00     0.287 C 
ATOM     13  O   UNL d   1      79.043  82.635  97.644  0.00  0.00    -0.269 OA
ATOM     14  N   UNL d   1      80.403  81.951  99.315  0.00  0.00    -0.056 NA
ENDBRANCH   6  12
TORSDOF 1
ENDMDL
MODEL 4
REMARK VINA RESULT:      -5.5     15.081     16.082
REMARK  1 active torsions:
REMARK  status: ('A' for Active; 'I' for Inactive)
REMARK    1  A    between atoms: C_6  and  C_12 
ROOT
ATOM      1  C   UNL d   1      79.523  65.799  89.187  0.00  0.00     0.161 C 
ATOM      2  N   UNL d   1      78.536  66.826  88.942  0.00  0.00    -0.182 N 
ATOM      3  N   UNL d   1      78.085  67.351  90.141  0.00  0.00    -0.059 NA
ATOM      4  N   UNL d   1      77.222  68.259  90.170  0.00  0.00    -0.110 NA
ATOM      5  C   UNL d   1      76.712  68.747  89.024  0.00  0.00     0.198 A 
ATOM      6  C   UNL d   1      75.775  69.718  88.707  0.00  0.00     0.172 A 
ATOM      7  N   UNL d   1      75.639  69.802  87.330  0.00  0.00    -0.218 NA
ATOM      8  C   UNL d   1      76.470  68.909  86.838  0.00  0.00     0.188 A 
ATOM      9  N   UNL d   1      77.140  68.247  87.830  0.00  0.00    -0.222 N 
ATOM     10  C   UNL d   1      78.080  67.252  87.692  0.00  0.00     0.355 A 
ATOM     11  O   UNL d   1      78.387  66.882  86.566  0.00  0.00    -0.244 OA
ENDROOT
BRANCH   6  12
ATOM     12  C   UNL d   1      75.034  70.537  89.653  0.00  0.00     0.287 C 
ATOM     13  O   UNL d   1      75.418  71.605  90.110  0.00  0.00    -0.269 OA
ATOM     14  N   UNL d   1      73.759  70.069  90.086  0.00  0.00    -0.056 NA
ENDBRANCH   6  12
TORSDOF 1
ENDMDL
MODEL 5
REMARK VINA RESULT:      -5.3      3.009      4.132
REMARK  1 active torsions:
REMARK  status: ('A' for Active; 'I' for Inactive)
REMARK    1  A    between atoms: C_6  and  C_12 
ROOT
ATOM      1  C   UNL d   1      82.081  75.591  96.918  0.00  0.00     0.161 C 
ATOM      2  N   UNL d   1      82.547  76.897  96.510  0.00  0.00    -0.182 N 
ATOM      3  N   UNL d   1      81.924  77.881  97.258  0.00  0.00    -0.059 NA
ATOM      4  N   UNL d   1      82.177  79.095  97.074  0.00  0.00    -0.110 NA
ATOM      5  C   UNL d   1      83.067  79.468  96.137  0.00  0.00     0.198 A 
ATOM      6  C   UNL d   1      83.563  80.682  95.690  0.00  0.00     0.172 A 
ATOM      7  N   UNL d   1      84.484  80.465  94.677  0.00  0.00    -0.218 NA
ATOM      8  C   UNL d   1      84.538  79.160  94.522  0.00  0.00     0.188 A 
ATOM      9  N   UNL d   1      83.694  78.518  95.388  0.00  0.00    -0.222 N 
ATOM     10  C   UNL d   1      83.487  77.163  95.512  0.00  0.00     0.355 A 
ATOM     11  O   UNL d   1      84.109  76.402  94.782  0.00  0.00    -0.244 OA
ENDROOT
BRANCH   6  12
ATOM     12  C   UNL d   1      83.193  81.998  96.189  0.00  0.00     0.287 C 
ATOM     13  O   UNL d   1      82.212  82.635  95.830  0.00  0.00    -0.269 OA
ATOM     14  N   UNL d   1      84.031  82.600  97.171  0.00  0.00    -0.056 NA
ENDBRANCH   6  12
TORSDOF 1
ENDMDL
MODEL 6
REMARK VINA RESULT:      -5.2     13.878     15.290
REMARK  1 active torsions:
REMARK  status: ('A' for Active; 'I' for Inactive)
REMARK    1  A    between atoms: C_6  and  C_12 
ROOT
ATOM      1  C   UNL d   1      78.068  67.622  86.545  0.00  0.00     0.161 C 
ATOM      2  N   UNL d   1      77.448  68.279  87.673  0.00  0.00    -0.182 N 
ATOM      3  N   UNL d   1      76.640  69.315  87.238  0.00  0.00    -0.059 NA
ATOM      4  N   UNL d   1      76.001  70.026  88.048  0.00  0.00    -0.110 NA
ATOM      5  C   UNL d   1      76.088  69.793  89.370  0.00  0.00     0.198 A 
ATOM      6  C   UNL d   1      75.533  70.369  90.502  0.00  0.00     0.172 A 
ATOM      7  N   UNL d   1      75.985  69.704  91.632  0.00  0.00    -0.218 NA
ATOM      8  C   UNL d   1      76.786  68.760  91.190  0.00  0.00     0.188 A 
ATOM      9  N   UNL d   1      76.876  68.778  89.824  0.00  0.00    -0.222 N 
ATOM     10  C   UNL d   1      77.616  67.943  89.019  0.00  0.00     0.355 A 
ATOM     11  O   UNL d   1      78.290  67.064  89.540  0.00  0.00    -0.244 OA
ENDROOT
BRANCH   6  12
ATOM     12  C   UNL d   1      74.615  71.497  90.530  0.00  0.00     0.287 C 
ATOM     13  O   UNL d   1      73.428  71.431  90.822  0.00  0.00    -0.269 OA
ATOM     14  N   UNL d   1      75.128  72.783  90.194  0.00  0.00    -0.056 NA
ENDBRANCH   6  12
TORSDOF 1
ENDMDL
MODEL 7
REMARK VINA RESULT:      -5.2     15.200     16.961
REMARK  1 active torsions:
REMARK  status: ('A' for Active; 'I' for Inactive)
REMARK    1  A    between atoms: C_6  and  C_12 
ROOT
ATOM      1  C   UNL d   1      75.291  70.893  89.793  0.00  0.00     0.161 C 
ATOM      2  N   UNL d   1      76.108  69.834  89.243  0.00  0.00    -0.182 N 
ATOM      3  N   UNL d   1      76.625  69.052  90.261  0.00  0.00    -0.059 NA
ATOM      4  N   UNL d   1      77.365  68.071  90.016  0.00  0.00    -0.110 NA
ATOM      5  C   UNL d   1      77.675  67.756  88.745  0.00  0.00     0.198 A 
ATOM      6  C   UNL d   1      78.440  66.771  88.142  0.00  0.00     0.172 A 
ATOM      7  N   UNL d   1      78.404  66.931  86.765  0.00  0.00    -0.218 NA
ATOM      8  C   UNL d   1      77.641  67.980  86.551  0.00  0.00     0.188 A 
ATOM      9  N   UNL d   1      77.178  68.511  87.725  0.00  0.00    -0.222 N 
ATOM     10  C   UNL d   1      76.359  69.604  87.889  0.00  0.00     0.355 A 
ATOM     11  O   UNL d   1      75.973  70.207  86.895  0.00  0.00    -0.244 OA
ENDROOT
BRANCH   6  12
ATOM     12  C   UNL d   1      79.177  65.718  88.823  0.00  0.00     0.287 C 
ATOM     13  O   UNL d   1      80.092  65.900  89.616  0.00  0.00    -0.269 OA
ATOM     14  N   UNL d   1      78.815  64.367  88.553  0.00  0.00    -0.056 NA
ENDBRANCH   6  12
TORSDOF 1
ENDMDL
MODEL 8
REMARK VINA RESULT:      -5.1     18.447     20.028
REMARK  1 active torsions:
REMARK  status: ('A' for Active; 'I' for Inactive)
REMARK    1  A    between atoms: C_6  and  C_12 
ROOT
ATOM      1  C   UNL d   1      62.963  86.431  91.609  0.00  0.00     0.161 C 
ATOM      2  N   UNL d   1      63.439  87.630  92.262  0.00  0.00    -0.182 N 
ATOM      3  N   UNL d   1      64.778  87.496  92.588  0.00  0.00    -0.059 NA
ATOM      4  N   UNL d   1      65.402  88.417  93.164  0.00  0.00    -0.110 NA
ATOM      5  C   UNL d   1      64.777  89.567  93.479  0.00  0.00     0.198 A 
ATOM      6  C   UNL d   1      65.158  90.747  94.096  0.00  0.00     0.172 A 
ATOM      7  N   UNL d   1      64.074  91.611  94.157  0.00  0.00    -0.218 NA
ATOM      8  C   UNL d   1      63.076  90.966  93.594  0.00  0.00     0.188 A 
ATOM      9  N   UNL d   1      63.459  89.723  93.168  0.00  0.00    -0.222 N 
ATOM     10  C   UNL d   1      62.688  88.774  92.539  0.00  0.00     0.355 A 
ATOM     11  O   UNL d   1      61.512  89.026  92.310  0.00  0.00    -0.244 OA
ENDROOT
BRANCH   6  12
ATOM     12  C   UNL d   1      66.482  91.061  94.611  0.00  0.00     0.287 C 
ATOM     13  O   UNL d   1      67.129  90.349  95.367  0.00  0.00    -0.269 OA
ATOM     14  N   UNL d   1      67.080  92.290  94.210  0.00  0.00    -0.056 NA
ENDBRANCH   6  12
TORSDOF 1
ENDMDL
MODEL 9
REMARK VINA RESULT:      -5.0      2.810      3.309
REMARK  1 active torsions:
REMARK  status: ('A' for Active; 'I' for Inactive)
REMARK    1  A    between atoms: C_6  and  C_12 
ROOT
ATOM      1  C   UNL d   1      84.941  81.131  95.898  0.00  0.00     0.161 C 
ATOM      2  N   UNL d   1      83.574  80.720  96.131  0.00  0.00    -0.182 N 
ATOM      3  N   UNL d   1      83.537  79.403  96.553  0.00  0.00    -0.059 NA
ATOM      4  N   UNL d   1      82.452  78.834  96.815  0.00  0.00    -0.110 NA
ATOM      5  C   UNL d   1      81.289  79.500  96.690  0.00  0.00     0.198 A 
ATOM      6  C   UNL d   1      79.956  79.183  96.891  0.00  0.00     0.172 A 
ATOM      7  N   UNL d   1      79.166  80.284  96.600  0.00  0.00    -0.218 NA
ATOM      8  C   UNL d   1      80.002  81.232  96.235  0.00  0.00     0.188 A 
ATOM      9  N   UNL d   1      81.299  80.799  96.276  0.00  0.00    -0.222 N 
ATOM     10  C   UNL d   1      82.435  81.510  95.965  0.00  0.00     0.355 A 
ATOM     11  O   UNL d   1      82.321  82.674  95.603  0.00  0.00    -0.244 OA
ENDROOT
BRANCH   6  12
ATOM     12  C   UNL d   1      79.435  77.900  97.338  0.00  0.00     0.287 C 
ATOM     13  O   UNL d   1      79.530  76.849  96.719  0.00  0.00    -0.269 OA
ATOM     14  N   UNL d   1      78.761  77.853  98.593  0.00  0.00    -0.056 NA
ENDBRANCH   6  12
TORSDOF 1
ENDMDL
MODEL 10
REMARK VINA RESULT:      -4.9     19.913     21.348
REMARK  1 active torsions:
REMARK  status: ('A' for Active; 'I' for Inactive)
REMARK    1  A    between atoms: C_6  and  C_12 
ROOT
ATOM      1  C   UNL d   1      60.757  87.083  89.899  0.00  0.00     0.161 C 
ATOM      2  N   UNL d   1      61.594  87.846  90.798  0.00  0.00    -0.182 N 
ATOM      3  N   UNL d   1      60.866  88.245  91.905  0.00  0.00    -0.059 NA
ATOM      4  N   UNL d   1      61.391  88.922  92.819  0.00  0.00    -0.110 NA
ATOM      5  C   UNL d   1      62.687  89.277  92.742  0.00  0.00     0.198 A 
ATOM      6  C   UNL d   1      63.552  89.997  93.550  0.00  0.00     0.172 A 
ATOM      7  N   UNL d   1      64.806  90.050  92.959  0.00  0.00    -0.218 NA
ATOM      8  C   UNL d   1      64.694  89.381  91.832  0.00  0.00     0.188 A 
ATOM      9  N   UNL d   1      63.426  88.896  91.662  0.00  0.00    -0.222 N 
ATOM     10  C   UNL d   1      62.943  88.154  90.608  0.00  0.00     0.355 A 
ATOM     11  O   UNL d   1      63.702  87.870  89.690  0.00  0.00    -0.244 OA
ENDROOT
BRANCH   6  12
ATOM     12  C   UNL d   1      63.224  90.615  94.825  0.00  0.00     0.287 C 
ATOM     13  O   UNL d   1      63.362  91.802  95.088  0.00  0.00    -0.269 OA
ATOM     14  N   UNL d   1      62.700  89.781  95.856  0.00  0.00    -0.056 NA
ENDBRANCH   6  12
TORSDOF 1
ENDMDL
MODEL 11
REMARK VINA RESULT:      -4.9     17.520     19.397
REMARK  1 active torsions:
REMARK  status: ('A' for Active; 'I' for Inactive)
REMARK    1  A    between atoms: C_6  and  C_12 
ROOT
ATOM      1  C   UNL d   1      65.706  86.500  96.473  0.00  0.00     0.161 C 
ATOM      2  N   UNL d   1      65.519  87.729  95.735  0.00  0.00    -0.182 N 
ATOM      3  N   UNL d   1      64.303  87.709  95.075  0.00  0.00    -0.059 NA
ATOM      4  N   UNL d   1      63.930  88.676  94.370  0.00  0.00    -0.110 NA
ATOM      5  C   UNL d   1      64.712  89.762  94.240  0.00  0.00     0.198 A 
ATOM      6  C   UNL d   1      64.608  90.965  93.561  0.00  0.00     0.172 A 
ATOM      7  N   UNL d   1      65.741  91.730  93.791  0.00  0.00    -0.218 NA
ATOM      8  C   UNL d   1      66.501  91.006  94.583  0.00  0.00     0.188 A 
ATOM      9  N   UNL d   1      65.915  89.806  94.880  0.00  0.00    -0.222 N 
ATOM     10  C   UNL d   1      66.414  88.800  95.675  0.00  0.00     0.355 A 
ATOM     11  O   UNL d   1      67.509  88.950  96.201  0.00  0.00    -0.244 OA
ENDROOT
BRANCH   6  12
ATOM     12  C   UNL d   1      63.492  91.388  92.728  0.00  0.00     0.287 C 
ATOM     13  O   UNL d   1      63.511  91.447  91.506  0.00  0.00    -0.269 OA
ATOM     14  N   UNL d   1      62.281  91.765  93.376  0.00  0.00    -0.056 NA
ENDBRANCH   6  12
TORSDOF 1
ENDMDL
MODEL 12
REMARK VINA RESULT:      -4.8     13.331     14.513
REMARK  1 active torsions:
REMARK  status: ('A' for Active; 'I' for Inactive)
REMARK    1  A    between atoms: C_6  and  C_12 
ROOT
ATOM      1  C   UNL d   1      70.399  87.714  98.654  0.00  0.00     0.161 C 
ATOM      2  N   UNL d   1      70.831  88.226  99.935  0.00  0.00    -0.182 N 
ATOM      3  N   UNL d   1      72.199  88.434  99.930  0.00  0.00    -0.059 NA
ATOM      4  N   UNL d   1      72.794  88.876 100.940  0.00  0.00    -0.110 NA
ATOM      5  C   UNL d   1      72.106  89.160 102.062  0.00  0.00     0.198 A 
ATOM      6  C   UNL d   1      72.441  89.647 103.315  0.00  0.00     0.172 A 
ATOM      7  N   UNL d   1      71.299  89.744 104.097  0.00  0.00    -0.218 NA
ATOM      8  C   UNL d   1      70.312  89.327 103.334  0.00  0.00     0.188 A 
ATOM      9  N   UNL d   1      70.758  88.964 102.092  0.00  0.00    -0.222 N 
ATOM     10  C   UNL d   1      70.015  88.484 101.039  0.00  0.00     0.355 A 
ATOM     11  O   UNL d   1      68.806  88.348 101.182  0.00  0.00    -0.244 OA
ENDROOT
BRANCH   6  12
ATOM     12  C   UNL d   1      73.774  90.010 103.769  0.00  0.00     0.287 C 
ATOM     13  O   UNL d   1      74.728  90.238 103.037  0.00  0.00    -0.269 OA
ATOM     14  N   UNL d   1      73.998  90.109 105.172  0.00  0.00    -0.056 NA
ENDBRANCH   6  12
TORSDOF 1
ENDMDL
MODEL 13
REMARK VINA RESULT:      -4.8     16.935     18.989
REMARK  1 active torsions:
REMARK  status: ('A' for Active; 'I' for Inactive)
REMARK    1  A    between atoms: C_6  and  C_12 
ROOT
ATOM      1  C   UNL d   1      66.761  85.586  92.268  0.00  0.00     0.161 C 
ATOM      2  N   UNL d   1      66.291  86.923  92.553  0.00  0.00    -0.182 N 
ATOM      3  N   UNL d   1      65.295  87.279  91.661  0.00  0.00    -0.059 NA
ATOM      4  N   UNL d   1      64.739  88.401  91.721  0.00  0.00    -0.110 NA
ATOM      5  C   UNL d   1      65.104  89.289  92.663  0.00  0.00     0.198 A 
ATOM      6  C   UNL d   1      64.708  90.574  92.999  0.00  0.00     0.172 A 
ATOM      7  N   UNL d   1      65.444  91.018  94.087  0.00  0.00    -0.218 NA
ATOM      8  C   UNL d   1      66.256  90.029  94.392  0.00  0.00     0.188 A 
ATOM      9  N   UNL d   1      66.082  88.962  93.553  0.00  0.00    -0.222 N 
ATOM     10  C   UNL d   1      66.752  87.760  93.571  0.00  0.00     0.355 A 
ATOM     11  O   UNL d   1      67.615  87.578  94.421  0.00  0.00    -0.244 OA
ENDROOT
BRANCH   6  12
ATOM     12  C   UNL d   1      63.681  91.359  92.332  0.00  0.00     0.287 C 
ATOM     13  O   UNL d   1      62.724  91.881  92.888  0.00  0.00    -0.269 OA
ATOM     14  N   UNL d   1      63.790  91.541  90.923  0.00  0.00    -0.056 NA
ENDBRANCH   6  12
TORSDOF 1
ENDMDL
MODEL 14
REMARK VINA RESULT:      -4.8     18.348     20.578
REMARK  1 active torsions:
REMARK  status: ('A' for Active; 'I' for Inactive)
REMARK    1  A    between atoms: C_6  and  C_12 
ROOT
ATOM      1  C   UNL d   1      60.929  87.283  95.165  0.00  0.00     0.161 C 
ATOM      2  N   UNL d   1      61.972  88.250  94.908  0.00  0.00    -0.182 N 
ATOM      3  N   UNL d   1      63.095  87.952  95.659  0.00  0.00    -0.059 NA
ATOM      4  N   UNL d   1      64.127  88.660  95.596  0.00  0.00    -0.110 NA
ATOM      5  C   UNL d   1      64.163  89.736  94.788  0.00  0.00     0.198 A 
ATOM      6  C   UNL d   1      65.111  90.701  94.488  0.00  0.00     0.172 A 
ATOM      7  N   UNL d   1      64.591  91.593  93.562  0.00  0.00    -0.218 NA
ATOM      8  C   UNL d   1      63.369  91.174  93.316  0.00  0.00     0.188 A 
ATOM      9  N   UNL d   1      63.069  90.051  94.038  0.00  0.00    -0.222 N 
ATOM     10  C   UNL d   1      61.892  89.339  94.036  0.00  0.00     0.355 A 
ATOM     11  O   UNL d   1      60.975  89.717  93.319  0.00  0.00    -0.244 OA
ENDROOT
BRANCH   6  12
ATOM     12  C   UNL d   1      66.453  90.790  95.044  0.00  0.00     0.287 C 
ATOM     13  O   UNL d   1      67.075  89.856  95.531  0.00  0.00    -0.269 OA
ATOM     14  N   UNL d   1      67.101  92.059  95.023  0.00  0.00    -0.056 NA
ENDBRANCH   6  12
TORSDOF 1
ENDMDL
MODEL 15
REMARK VINA RESULT:      -4.7     13.389     14.250
REMARK  1 active torsions:
REMARK  status: ('A' for Active; 'I' for Inactive)
REMARK    1  A    between atoms: C_6  and  C_12 
ROOT
ATOM      1  C   UNL d   1      78.147  68.052  98.984  0.00  0.00     0.161 C 
ATOM      2  N   UNL d   1      77.026  68.879  99.370  0.00  0.00    -0.182 N 
ATOM      3  N   UNL d   1      75.846  68.335  98.893  0.00  0.00    -0.059 NA
ATOM      4  N   UNL d   1      74.742  68.887  99.109  0.00  0.00    -0.110 NA
ATOM      5  C   UNL d   1      74.681  70.030  99.816  0.00  0.00     0.198 A 
ATOM      6  C   UNL d   1      73.660  70.873 100.223  0.00  0.00     0.172 A 
ATOM      7  N   UNL d   1      74.190  71.931 100.946  0.00  0.00    -0.218 NA
ATOM      8  C   UNL d   1      75.489  71.727 100.970  0.00  0.00     0.188 A 
ATOM      9  N   UNL d   1      75.829  70.585 100.296  0.00  0.00    -0.222 N 
ATOM     10  C   UNL d   1      77.087  70.059 100.114  0.00  0.00     0.355 A 
ATOM     11  O   UNL d   1      78.048  70.647 100.594  0.00  0.00    -0.244 OA
ENDROOT
BRANCH   6  12
ATOM     12  C   UNL d   1      72.242  70.700  99.950  0.00  0.00     0.287 C 
ATOM     13  O   UNL d   1      71.724  70.780  98.844  0.00  0.00    -0.269 OA
ATOM     14  N   UNL d   1      71.380  70.415 101.048  0.00  0.00    -0.056 NA
ENDBRANCH   6  12
TORSDOF 1
ENDMDL
MODEL 16
REMARK VINA RESULT:      -4.7      3.005      3.687
REMARK  1 active torsions:
REMARK  status: ('A' for Active; 'I' for Inactive)
REMARK    1  A    between atoms: C_6  and  C_12 
ROOT
ATOM      1  C   UNL d   1      81.316  75.701  96.419  0.00  0.00     0.161 C 
ATOM      2  N   UNL d   1      81.075  77.123  96.324  0.00  0.00    -0.182 N 
ATOM      3  N   UNL d   1      81.883  77.805  97.218  0.00  0.00    -0.059 NA
ATOM      4  N   UNL d   1      81.842  79.054  97.309  0.00  0.00    -0.110 NA
ATOM      5  C   UNL d   1      81.003  79.764  96.532  0.00  0.00     0.198 A 
ATOM      6  C   UNL d   1      80.716  81.111  96.383  0.00  0.00     0.172 A 
ATOM      7  N   UNL d   1      79.741  81.274  95.409  0.00  0.00    -0.218 NA
ATOM      8  C   UNL d   1      79.455  80.061  94.990  0.00  0.00     0.188 A 
ATOM      9  N   UNL d   1      80.198  79.116  95.644  0.00  0.00    -0.222 N 
ATOM     10  C   UNL d   1      80.167  77.751  95.468  0.00  0.00     0.355 A 
ATOM     11  O   UNL d   1      79.401  77.280  94.639  0.00  0.00    -0.244 OA
ENDROOT
BRANCH   6  12
ATOM     12  C   UNL d   1      81.325  82.207  97.119  0.00  0.00     0.287 C 
ATOM     13  O   UNL d   1      82.528  82.361  97.282  0.00  0.00    -0.269 OA
ATOM     14  N   UNL d   1      80.464  83.183  97.699  0.00  0.00    -0.056 NA
ENDBRANCH   6  12
TORSDOF 1
ENDMDL
MODEL 17
REMARK VINA RESULT:      -4.7     15.842     16.648
REMARK  1 active torsions:
REMARK  status: ('A' for Active; 'I' for Inactive)
REMARK    1  A    between atoms: C_6  and  C_12 
ROOT
ATOM      1  C   UNL d   1      79.269  66.027  91.932  0.00  0.00     0.161 C 
ATOM      2  N   UNL d   1      78.758  66.622  90.718  0.00  0.00    -0.182 N 
ATOM      3  N   UNL d   1      77.869  67.639  91.022  0.00  0.00    -0.059 NA
ATOM      4  N   UNL d   1      77.302  68.297  90.119  0.00  0.00    -0.110 NA
ATOM      5  C   UNL d   1      77.547  68.026  88.824  0.00  0.00     0.198 A 
ATOM      6  C   UNL d   1      77.105  68.543  87.617  0.00  0.00     0.172 A 
ATOM      7  N   UNL d   1      77.707  67.862  86.570  0.00  0.00    -0.218 NA
ATOM      8  C   UNL d   1      78.485  66.965  87.134  0.00  0.00     0.188 A 
ATOM      9  N   UNL d   1      78.418  67.030  88.499  0.00  0.00    -0.222 N 
ATOM     10  C   UNL d   1      79.091  66.251  89.413  0.00  0.00     0.355 A 
ATOM     11  O   UNL d   1      79.851  65.383  89.003  0.00  0.00    -0.244 OA
ENDROOT
BRANCH   6  12
ATOM     12  C   UNL d   1      76.156  69.633  87.445  0.00  0.00     0.287 C 
ATOM     13  O   UNL d   1      75.990  70.552  88.235  0.00  0.00    -0.269 OA
ATOM     14  N   UNL d   1      75.354  69.639  86.268  0.00  0.00    -0.056 NA
ENDBRANCH   6  12
TORSDOF 1
ENDMDL
MODEL 18
REMARK VINA RESULT:      -4.6     11.862     13.434
REMARK  1 active torsions:
REMARK  status: ('A' for Active; 'I' for Inactive)
REMARK    1  A    between atoms: C_6  and  C_12 
ROOT
ATOM      1  C   UNL d   1      77.602  67.893  88.419  0.00  0.00     0.161 C 
ATOM      2  N   UNL d   1      77.511  69.300  88.739  0.00  0.00    -0.182 N 
ATOM      3  N   UNL d   1      78.778  69.845  88.860  0.00  0.00    -0.059 NA
ATOM      4  N   UNL d   1      78.940  71.056  89.135  0.00  0.00    -0.110 NA
ATOM      5  C   UNL d   1      77.876  71.859  89.320  0.00  0.00     0.198 A 
ATOM      6  C   UNL d   1      77.706  73.200  89.625  0.00  0.00     0.172 A 
ATOM      7  N   UNL d   1      76.353  73.493  89.695  0.00  0.00    -0.218 NA
ATOM      8  C   UNL d   1      75.732  72.362  89.439  0.00  0.00     0.188 A 
ATOM      9  N   UNL d   1      76.619  71.346  89.206  0.00  0.00    -0.222 N 
ATOM     10  C   UNL d   1      76.335  70.033  88.908  0.00  0.00     0.355 A 
ATOM     11  O   UNL d   1      75.164  69.686  88.832  0.00  0.00    -0.244 OA
ENDROOT
BRANCH   6  12
ATOM     12  C   UNL d   1      78.765  74.173  89.844  0.00  0.00     0.287 C 
ATOM     13  O   UNL d   1      79.184  74.521  90.940  0.00  0.00    -0.269 OA
ATOM     14  N   UNL d   1      79.367  74.774  88.701  0.00  0.00    -0.056 NA
ENDBRANCH   6  12
TORSDOF 1
ENDMDL
MODEL 19
REMARK VINA RESULT:      -4.5     21.933     22.525
REMARK  1 active torsions:
REMARK  status: ('A' for Active; 'I' for Inactive)
REMARK    1  A    between atoms: C_6  and  C_12 
ROOT
ATOM      1  C   UNL d   1      60.631  85.889  90.844  0.00  0.00     0.161 C 
ATOM      2  N   UNL d   1      60.848  86.951  91.800  0.00  0.00    -0.182 N 
ATOM      3  N   UNL d   1      61.789  87.843  91.317  0.00  0.00    -0.059 NA
ATOM      4  N   UNL d   1      62.135  88.847  91.982  0.00  0.00    -0.110 NA
ATOM      5  C   UNL d   1      61.593  89.080  93.192  0.00  0.00     0.198 A 
ATOM      6  C   UNL d   1      61.745  90.061  94.157  0.00  0.00     0.172 A 
ATOM      7  N   UNL d   1      60.912  89.790  95.232  0.00  0.00    -0.218 NA
ATOM      8  C   UNL d   1      60.280  88.681  94.918  0.00  0.00     0.188 A 
ATOM      9  N   UNL d   1      60.664  88.216  93.689  0.00  0.00    -0.222 N 
ATOM     10  C   UNL d   1      60.218  87.089  93.039  0.00  0.00     0.355 A 
ATOM     11  O   UNL d   1      59.378  86.385  93.586  0.00  0.00    -0.244 OA
ENDROOT
BRANCH   6  12
ATOM     12  C   UNL d   1      62.635  91.210  94.083  0.00  0.00     0.287 C 
ATOM     13  O   UNL d   1      63.285  91.657  95.018  0.00  0.00    -0.269 OA
ATOM     14  N   UNL d   1      62.765  91.873  92.829  0.00  0.00    -0.056 NA
ENDBRANCH   6  12
TORSDOF 1
ENDMDL
MODEL 20
REMARK VINA RESULT:      -4.3      3.798      4.643
REMARK  1 active torsions:
REMARK  status: ('A' for Active; 'I' for Inactive)
REMARK    1  A    between atoms: C_6  and  C_12 
ROOT
ATOM      1  C   UNL d   1      80.220  75.349  99.079  0.00  0.00     0.161 C 
ATOM      2  N   UNL d   1      80.157  76.683  98.525  0.00  0.00    -0.182 N 
ATOM      3  N   UNL d   1      80.705  77.595  99.411  0.00  0.00    -0.059 NA
ATOM      4  N   UNL d   1      80.757  78.816  99.138  0.00  0.00    -0.110 NA
ATOM      5  C   UNL d   1      80.275  79.271  97.967  0.00  0.00     0.198 A 
ATOM      6  C   UNL d   1      80.177  80.517  97.369  0.00  0.00     0.172 A 
ATOM      7  N   UNL d   1      79.577  80.391  96.125  0.00  0.00    -0.218 NA
ATOM      8  C   UNL d   1      79.322  79.109  95.984  0.00  0.00     0.188 A 
ATOM      9  N   UNL d   1      79.730  78.394  97.078  0.00  0.00    -0.222 N 
ATOM     10  C   UNL d   1      79.626  77.037  97.282  0.00  0.00     0.355 A 
ATOM     11  O   UNL d   1      79.116  76.346  96.410  0.00  0.00    -0.244 OA
ENDROOT
BRANCH   6  12
ATOM     12  C   UNL d   1      80.627  81.780  97.934  0.00  0.00     0.287 C 
ATOM     13  O   UNL d   1      81.594  82.421  97.542  0.00  0.00    -0.269 OA
ATOM     14  N   UNL d   1      79.893  82.321  99.029  0.00  0.00    -0.056 NA
ENDBRANCH   6  12
TORSDOF 1
ENDMDL
