MODEL 1
REMARK VINA RESULT:      -5.6      0.000      0.000
REMARK  2 active torsions:
REMARK  status: ('A' for Active; 'I' for Inactive)
REMARK    1  A    between atoms: N_11  and  C_14 
REMARK    2  A    between atoms: C_14  and  C_15 
ROOT
ATOM      1  C   UNL d   1      78.798  65.711  91.046  0.00  0.00     0.137 C 
ATOM      2  N   UNL d   1      78.285  66.713  90.123  0.00  0.00    -0.263 N 
ATOM      3  C   UNL d   1      77.533  67.732  90.697  0.00  0.00     0.171 A 
ATOM      4  C   UNL d   1      76.991  68.740  89.951  0.00  0.00     0.164 A 
ATOM      5  C   UNL d   1      77.141  68.844  88.541  0.00  0.00     0.284 A 
ATOM      6  O   UNL d   1      76.649  69.758  87.887  0.00  0.00    -0.265 OA
ATOM      7  N   UNL d   1      77.913  67.792  87.957  0.00  0.00    -0.246 N 
ATOM      8  C   UNL d   1      78.492  66.724  88.724  0.00  0.00     0.335 A 
ATOM      9  O   UNL d   1      79.161  65.827  88.178  0.00  0.00    -0.246 OA
ATOM     10  C   UNL d   1      78.132  67.802  86.484  0.00  0.00     0.139 C 
ATOM     11  N   UNL d   1      76.332  69.537  90.847  0.00  0.00    -0.243 N 
ATOM     12  C   UNL d   1      76.506  68.978  92.087  0.00  0.00     0.192 A 
ATOM     13  N   UNL d   1      77.231  67.880  92.027  0.00  0.00    -0.206 NA
ENDROOT
BRANCH  11  14
ATOM     14  C   UNL d   1      75.594  70.718  90.626  0.00  0.00     0.053 C 
BRANCH  14  15
ATOM     15  C   UNL d   1      74.684  71.895  90.521  0.00  0.00     0.268 C 
ATOM     16  O   UNL d   1      75.216  72.924  90.023  0.00  0.00    -0.637 OA
ATOM     17  O   UNL d   1      73.506  71.730  90.935  0.00  0.00    -0.637 OA
ENDBRANCH  14  15
ENDBRANCH  11  14
TORSDOF 2
ENDMDL
MODEL 2
REMARK VINA RESULT:      -5.5     12.946     14.618
REMARK  2 active torsions:
REMARK  status: ('A' for Active; 'I' for Inactive)
REMARK    1  A    between atoms: N_11  and  C_14 
REMARK    2  A    between atoms: C_14  and  C_15 
ROOT
ATOM      1  C   UNL d   1      82.681  78.312  93.306  0.00  0.00     0.137 C 
ATOM      2  N   UNL d   1      82.768  79.359  94.314  0.00  0.00    -0.263 N 
ATOM      3  C   UNL d   1      81.556  79.888  94.741  0.00  0.00     0.171 A 
ATOM      4  C   UNL d   1      81.487  80.875  95.682  0.00  0.00     0.164 A 
ATOM      5  C   UNL d   1      82.629  81.447  96.308  0.00  0.00     0.284 A 
ATOM      6  O   UNL d   1      82.548  82.331  97.155  0.00  0.00    -0.265 OA
ATOM      7  N   UNL d   1      83.873  80.899  95.864  0.00  0.00    -0.246 N 
ATOM      8  C   UNL d   1      83.966  79.861  94.875  0.00  0.00     0.335 A 
ATOM      9  O   UNL d   1      85.069  79.409  94.516  0.00  0.00    -0.246 OA
ATOM     10  C   UNL d   1      85.134  81.427  96.453  0.00  0.00     0.139 C 
ATOM     11  N   UNL d   1      80.153  81.132  95.838  0.00  0.00    -0.243 N 
ATOM     12  C   UNL d   1      79.478  80.293  94.989  0.00  0.00     0.192 A 
ATOM     13  N   UNL d   1      80.305  79.525  94.309  0.00  0.00    -0.206 NA
ENDROOT
BRANCH  11  14
ATOM     14  C   UNL d   1      79.509  82.060  96.682  0.00  0.00     0.053 C 
BRANCH  14  15
ATOM     15  C   UNL d   1      78.936  83.179  97.486  0.00  0.00     0.268 C 
ATOM     16  O   UNL d   1      79.794  83.964  97.975  0.00  0.00    -0.637 OA
ATOM     17  O   UNL d   1      77.681  83.212  97.584  0.00  0.00    -0.637 OA
ENDBRANCH  14  15
ENDBRANCH  11  14
TORSDOF 2
ENDMDL
MODEL 3
REMARK VINA RESULT:      -5.5     22.773     25.185
REMARK  2 active torsions:
REMARK  status: ('A' for Active; 'I' for Inactive)
REMARK    1  A    between atoms: N_11  and  C_14 
REMARK    2  A    between atoms: C_14  and  C_15 
ROOT
ATOM      1  C   UNL d   1      68.393  87.965 103.197  0.00  0.00     0.137 C 
ATOM      2  N   UNL d   1      69.703  88.293 102.652  0.00  0.00    -0.263 N 
ATOM      3  C   UNL d   1      70.568  88.949 103.520  0.00  0.00     0.171 A 
ATOM      4  C   UNL d   1      71.829  89.316 103.144  0.00  0.00     0.164 A 
ATOM      5  C   UNL d   1      72.370  89.067 101.853  0.00  0.00     0.284 A 
ATOM      6  O   UNL d   1      73.506  89.401 101.533  0.00  0.00    -0.265 OA
ATOM      7  N   UNL d   1      71.474  88.393 100.965  0.00  0.00    -0.246 N 
ATOM      8  C   UNL d   1      70.145  87.999 101.342  0.00  0.00     0.335 A 
ATOM      9  O   UNL d   1      69.395  87.412 100.540  0.00  0.00    -0.246 OA
ATOM     10  C   UNL d   1      71.938  88.083  99.585  0.00  0.00     0.139 C 
ATOM     11  N   UNL d   1      72.369  89.927 104.242  0.00  0.00    -0.243 N 
ATOM     12  C   UNL d   1      71.415  89.901 105.228  0.00  0.00     0.192 A 
ATOM     13  N   UNL d   1      70.310  89.313 104.817  0.00  0.00    -0.206 NA
ENDROOT
BRANCH  11  14
ATOM     14  C   UNL d   1      73.646  90.500 104.415  0.00  0.00     0.053 C 
BRANCH  14  15
ATOM     15  C   UNL d   1      74.940  91.241 104.467  0.00  0.00     0.268 C 
ATOM     16  O   UNL d   1      75.714  91.008 103.499  0.00  0.00    -0.637 OA
ATOM     17  O   UNL d   1      75.110  92.001 105.456  0.00  0.00    -0.637 OA
ENDBRANCH  14  15
ENDBRANCH  11  14
TORSDOF 2
ENDMDL
MODEL 4
REMARK VINA RESULT:      -5.5     21.425     24.206
REMARK  2 active torsions:
REMARK  status: ('A' for Active; 'I' for Inactive)
REMARK    1  A    between atoms: N_11  and  C_14 
REMARK    2  A    between atoms: C_14  and  C_15 
ROOT
ATOM      1  C   UNL d   1      62.362  88.273  89.784  0.00  0.00     0.137 C 
ATOM      2  N   UNL d   1      63.327  88.119  90.863  0.00  0.00    -0.263 N 
ATOM      3  C   UNL d   1      63.740  89.297  91.475  0.00  0.00     0.171 A 
ATOM      4  C   UNL d   1      64.641  89.302  92.502  0.00  0.00     0.164 A 
ATOM      5  C   UNL d   1      65.233  88.125  93.036  0.00  0.00     0.284 A 
ATOM      6  O   UNL d   1      66.039  88.149  93.960  0.00  0.00    -0.265 OA
ATOM      7  N   UNL d   1      64.806  86.918  92.400  0.00  0.00    -0.246 N 
ATOM      8  C   UNL d   1      63.860  86.891  91.320  0.00  0.00     0.335 A 
ATOM      9  O   UNL d   1      63.511  85.818  90.794  0.00  0.00    -0.246 OA
ATOM     10  C   UNL d   1      65.366  85.624  92.880  0.00  0.00     0.139 C 
ATOM     11  N   UNL d   1      64.798  90.620  92.837  0.00  0.00    -0.243 N 
ATOM     12  C   UNL d   1      63.987  91.347  92.002  0.00  0.00     0.192 A 
ATOM     13  N   UNL d   1      63.333  90.570  91.164  0.00  0.00    -0.206 NA
ENDROOT
BRANCH  11  14
ATOM     14  C   UNL d   1      65.610  91.204  93.830  0.00  0.00     0.053 C 
BRANCH  14  15
ATOM     15  C   UNL d   1      66.610  91.697  94.822  0.00  0.00     0.268 C 
ATOM     16  O   UNL d   1      66.366  91.370  96.015  0.00  0.00    -0.637 OA
ATOM     17  O   UNL d   1      67.567  92.373  94.362  0.00  0.00    -0.637 OA
ENDBRANCH  14  15
ENDBRANCH  11  14
TORSDOF 2
ENDMDL
MODEL 5
REMARK VINA RESULT:      -5.5      1.581      3.017
REMARK  2 active torsions:
REMARK  status: ('A' for Active; 'I' for Inactive)
REMARK    1  A    between atoms: N_11  and  C_14 
REMARK    2  A    between atoms: C_14  and  C_15 
ROOT
ATOM      1  C   UNL d   1      78.320  66.517  87.483  0.00  0.00     0.137 C 
ATOM      2  N   UNL d   1      77.909  67.159  88.724  0.00  0.00    -0.263 N 
ATOM      3  C   UNL d   1      77.169  68.327  88.582  0.00  0.00     0.171 A 
ATOM      4  C   UNL d   1      76.717  69.033  89.660  0.00  0.00     0.164 A 
ATOM      5  C   UNL d   1      76.952  68.649  91.008  0.00  0.00     0.284 A 
ATOM      6  O   UNL d   1      76.535  69.294  91.964  0.00  0.00    -0.265 OA
ATOM      7  N   UNL d   1      77.715  67.448  91.147  0.00  0.00    -0.246 N 
ATOM      8  C   UNL d   1      78.200  66.691  90.026  0.00  0.00     0.335 A 
ATOM      9  O   UNL d   1      78.860  65.648  90.189  0.00  0.00    -0.246 OA
ATOM     10  C   UNL d   1      78.022  66.954  92.518  0.00  0.00     0.139 C 
ATOM     11  N   UNL d   1      76.043  70.102  89.134  0.00  0.00    -0.243 N 
ATOM     12  C   UNL d   1      76.118  69.994  87.768  0.00  0.00     0.192 A 
ATOM     13  N   UNL d   1      76.797  68.925  87.404  0.00  0.00    -0.206 NA
ENDROOT
BRANCH  11  14
ATOM     14  C   UNL d   1      75.375  71.155  89.791  0.00  0.00     0.053 C 
BRANCH  14  15
ATOM     15  C   UNL d   1      74.550  72.131  90.562  0.00  0.00     0.268 C 
ATOM     16  O   UNL d   1      73.452  71.672  90.979  0.00  0.00    -0.637 OA
ATOM     17  O   UNL d   1      75.037  73.284  90.705  0.00  0.00    -0.637 OA
ENDBRANCH  14  15
ENDBRANCH  11  14
TORSDOF 2
ENDMDL
MODEL 6
REMARK VINA RESULT:      -5.5     13.138     15.505
REMARK  2 active torsions:
REMARK  status: ('A' for Active; 'I' for Inactive)
REMARK    1  A    between atoms: N_11  and  C_14 
REMARK    2  A    between atoms: C_14  and  C_15 
ROOT
ATOM      1  C   UNL d   1      78.466  79.940  93.801  0.00  0.00     0.137 C 
ATOM      2  N   UNL d   1      79.145  80.670  94.863  0.00  0.00    -0.263 N 
ATOM      3  C   UNL d   1      80.532  80.588  94.859  0.00  0.00     0.171 A 
ATOM      4  C   UNL d   1      81.298  81.223  95.795  0.00  0.00     0.164 A 
ATOM      5  C   UNL d   1      80.760  82.017  96.844  0.00  0.00     0.284 A 
ATOM      6  O   UNL d   1      81.463  82.584  97.674  0.00  0.00    -0.265 OA
ATOM      7  N   UNL d   1      79.332  82.096  96.843  0.00  0.00    -0.246 N 
ATOM      8  C   UNL d   1      78.510  81.435  95.868  0.00  0.00     0.335 A 
ATOM      9  O   UNL d   1      77.269  81.530  95.900  0.00  0.00    -0.246 OA
ATOM     10  C   UNL d   1      78.663  82.902  97.902  0.00  0.00     0.139 C 
ATOM     11  N   UNL d   1      82.591  80.914  95.473  0.00  0.00    -0.243 N 
ATOM     12  C   UNL d   1      82.549  80.110  94.362  0.00  0.00     0.192 A 
ATOM     13  N   UNL d   1      81.311  79.894  93.967  0.00  0.00    -0.206 NA
ENDROOT
BRANCH  11  14
ATOM     14  C   UNL d   1      83.791  81.300  96.103  0.00  0.00     0.053 C 
BRANCH  14  15
ATOM     15  C   UNL d   1      84.948  81.798  96.904  0.00  0.00     0.268 C 
ATOM     16  O   UNL d   1      85.850  80.940  97.108  0.00  0.00    -0.637 OA
ATOM     17  O   UNL d   1      84.893  82.999  97.280  0.00  0.00    -0.637 OA
ENDBRANCH  14  15
ENDBRANCH  11  14
TORSDOF 2
ENDMDL
MODEL 7
REMARK VINA RESULT:      -5.4     19.619     22.580
REMARK  2 active torsions:
REMARK  status: ('A' for Active; 'I' for Inactive)
REMARK    1  A    between atoms: N_11  and  C_14 
REMARK    2  A    between atoms: C_14  and  C_15 
ROOT
ATOM      1  C   UNL d   1      65.522  84.332  91.112  0.00  0.00     0.137 C 
ATOM      2  N   UNL d   1      65.916  85.496  91.892  0.00  0.00    -0.263 N 
ATOM      3  C   UNL d   1      65.205  86.663  91.636  0.00  0.00     0.171 A 
ATOM      4  C   UNL d   1      65.467  87.830  92.295  0.00  0.00     0.164 A 
ATOM      5  C   UNL d   1      66.473  87.964  93.290  0.00  0.00     0.284 A 
ATOM      6  O   UNL d   1      66.692  89.020  93.874  0.00  0.00    -0.265 OA
ATOM      7  N   UNL d   1      67.203  86.761  93.548  0.00  0.00    -0.246 N 
ATOM      8  C   UNL d   1      66.942  85.524  92.865  0.00  0.00     0.335 A 
ATOM      9  O   UNL d   1      67.598  84.497  93.120  0.00  0.00    -0.246 OA
ATOM     10  C   UNL d   1      68.283  86.789  94.572  0.00  0.00     0.139 C 
ATOM     11  N   UNL d   1      64.581  88.739  91.783  0.00  0.00    -0.243 N 
ATOM     12  C   UNL d   1      63.828  88.083  90.843  0.00  0.00     0.192 A 
ATOM     13  N   UNL d   1      64.185  86.820  90.732  0.00  0.00    -0.206 NA
ENDROOT
BRANCH  11  14
ATOM     14  C   UNL d   1      64.408  90.102  92.100  0.00  0.00     0.053 C 
BRANCH  14  15
ATOM     15  C   UNL d   1      64.107  91.482  92.580  0.00  0.00     0.268 C 
ATOM     16  O   UNL d   1      62.982  91.926  92.222  0.00  0.00    -0.637 OA
ATOM     17  O   UNL d   1      64.997  92.039  93.276  0.00  0.00    -0.637 OA
ENDBRANCH  14  15
ENDBRANCH  11  14
TORSDOF 2
ENDMDL
MODEL 8
REMARK VINA RESULT:      -5.4     21.069     23.038
REMARK  2 active torsions:
REMARK  status: ('A' for Active; 'I' for Inactive)
REMARK    1  A    between atoms: N_11  and  C_14 
REMARK    2  A    between atoms: C_14  and  C_15 
ROOT
ATOM      1  C   UNL d   1      60.167  72.882  80.785  0.00  0.00     0.137 C 
ATOM      2  N   UNL d   1      58.814  72.658  81.272  0.00  0.00    -0.263 N 
ATOM      3  C   UNL d   1      57.875  72.316  80.307  0.00  0.00     0.171 A 
ATOM      4  C   UNL d   1      56.567  72.075  80.621  0.00  0.00     0.164 A 
ATOM      5  C   UNL d   1      56.049  72.148  81.943  0.00  0.00     0.284 A 
ATOM      6  O   UNL d   1      54.872  71.926  82.208  0.00  0.00    -0.265 OA
ATOM      7  N   UNL d   1      57.020  72.503  82.931  0.00  0.00    -0.246 N 
ATOM      8  C   UNL d   1      58.399  72.759  82.620  0.00  0.00     0.335 A 
ATOM      9  O   UNL d   1      59.215  73.063  83.510  0.00  0.00    -0.246 OA
ATOM     10  C   UNL d   1      56.585  72.610  84.351  0.00  0.00     0.139 C 
ATOM     11  N   UNL d   1      55.960  71.775  79.432  0.00  0.00    -0.243 N 
ATOM     12  C   UNL d   1      56.923  71.847  78.458  0.00  0.00     0.192 A 
ATOM     13  N   UNL d   1      58.096  72.174  78.960  0.00  0.00    -0.206 NA
ENDROOT
BRANCH  11  14
ATOM     14  C   UNL d   1      54.615  71.446  79.168  0.00  0.00     0.053 C 
BRANCH  14  15
ATOM     15  C   UNL d   1      53.208  70.967  79.035  0.00  0.00     0.268 C 
ATOM     16  O   UNL d   1      52.373  71.870  78.755  0.00  0.00    -0.637 OA
ATOM     17  O   UNL d   1      53.016  69.736  79.215  0.00  0.00    -0.637 OA
ENDBRANCH  14  15
ENDBRANCH  11  14
TORSDOF 2
ENDMDL
MODEL 9
REMARK VINA RESULT:      -5.3     23.633     25.355
REMARK  2 active torsions:
REMARK  status: ('A' for Active; 'I' for Inactive)
REMARK    1  A    between atoms: N_11  and  C_14 
REMARK    2  A    between atoms: C_14  and  C_15 
ROOT
ATOM      1  C   UNL d   1      68.734  87.714  99.808  0.00  0.00     0.137 C 
ATOM      2  N   UNL d   1      69.063  88.251 101.121  0.00  0.00    -0.263 N 
ATOM      3  C   UNL d   1      70.383  88.649 101.297  0.00  0.00     0.171 A 
ATOM      4  C   UNL d   1      70.831  89.171 102.476  0.00  0.00     0.164 A 
ATOM      5  C   UNL d   1      70.005  89.359 103.618  0.00  0.00     0.284 A 
ATOM      6  O   UNL d   1      70.424  89.833 104.669  0.00  0.00    -0.265 OA
ATOM      7  N   UNL d   1      68.649  88.947 103.432  0.00  0.00    -0.246 N 
ATOM      8  C   UNL d   1      68.159  88.395 102.199  0.00  0.00     0.335 A 
ATOM      9  O   UNL d   1      66.969  88.050 102.075  0.00  0.00    -0.246 OA
ATOM     10  C   UNL d   1      67.696  89.097 104.566  0.00  0.00     0.139 C 
ATOM     11  N   UNL d   1      72.158  89.437 102.272  0.00  0.00    -0.243 N 
ATOM     12  C   UNL d   1      72.450  89.065 100.985  0.00  0.00     0.192 A 
ATOM     13  N   UNL d   1      71.390  88.582 100.368  0.00  0.00    -0.206 NA
ENDROOT
BRANCH  11  14
ATOM     14  C   UNL d   1      73.111  89.984 103.155  0.00  0.00     0.053 C 
BRANCH  14  15
ATOM     15  C   UNL d   1      74.213  90.625 103.929  0.00  0.00     0.268 C 
ATOM     16  O   UNL d   1      75.347  90.555 103.379  0.00  0.00    -0.637 OA
ATOM     17  O   UNL d   1      73.893  91.154 105.026  0.00  0.00    -0.637 OA
ENDBRANCH  14  15
ENDBRANCH  11  14
TORSDOF 2
ENDMDL
MODEL 10
REMARK VINA RESULT:      -5.3      2.310      3.589
REMARK  2 active torsions:
REMARK  status: ('A' for Active; 'I' for Inactive)
REMARK    1  A    between atoms: N_11  and  C_14 
REMARK    2  A    between atoms: C_14  and  C_15 
ROOT
ATOM      1  C   UNL d   1      76.368  69.331  86.088  0.00  0.00     0.137 C 
ATOM      2  N   UNL d   1      76.863  68.691  87.298  0.00  0.00    -0.263 N 
ATOM      3  C   UNL d   1      76.340  69.175  88.492  0.00  0.00     0.171 A 
ATOM      4  C   UNL d   1      76.713  68.667  89.704  0.00  0.00     0.164 A 
ATOM      5  C   UNL d   1      77.654  67.613  89.860  0.00  0.00     0.284 A 
ATOM      6  O   UNL d   1      77.975  67.167  90.957  0.00  0.00    -0.265 OA
ATOM      7  N   UNL d   1      78.189  67.121  88.629  0.00  0.00    -0.246 N 
ATOM      8  C   UNL d   1      77.810  67.642  87.345  0.00  0.00     0.335 A 
ATOM      9  O   UNL d   1      78.297  67.185  86.294  0.00  0.00    -0.246 OA
ATOM     10  C   UNL d   1      79.186  66.016  88.676  0.00  0.00     0.139 C 
ATOM     11  N   UNL d   1      76.002  69.382  90.629  0.00  0.00    -0.243 N 
ATOM     12  C   UNL d   1      75.235  70.285  89.937  0.00  0.00     0.192 A 
ATOM     13  N   UNL d   1      75.420  70.182  88.636  0.00  0.00    -0.206 NA
ENDROOT
BRANCH  11  14
ATOM     14  C   UNL d   1      75.997  69.280  92.034  0.00  0.00     0.053 C 
BRANCH  14  15
ATOM     15  C   UNL d   1      76.102  69.010  93.498  0.00  0.00     0.268 C 
ATOM     16  O   UNL d   1      76.617  67.896  93.788  0.00  0.00    -0.637 OA
ATOM     17  O   UNL d   1      75.670  69.910  94.265  0.00  0.00    -0.637 OA
ENDBRANCH  14  15
ENDBRANCH  11  14
TORSDOF 2
ENDMDL
MODEL 11
REMARK VINA RESULT:      -5.1     20.357     23.216
REMARK  2 active torsions:
REMARK  status: ('A' for Active; 'I' for Inactive)
REMARK    1  A    between atoms: N_11  and  C_14 
REMARK    2  A    between atoms: C_14  and  C_15 
ROOT
ATOM      1  C   UNL d   1      68.493  87.418  96.182  0.00  0.00     0.137 C 
ATOM      2  N   UNL d   1      67.658  87.531  94.995  0.00  0.00    -0.263 N 
ATOM      3  C   UNL d   1      66.866  88.670  94.920  0.00  0.00     0.171 A 
ATOM      4  C   UNL d   1      66.035  88.907  93.863  0.00  0.00     0.164 A 
ATOM      5  C   UNL d   1      65.902  88.027  92.754  0.00  0.00     0.284 A 
ATOM      6  O   UNL d   1      65.152  88.257  91.811  0.00  0.00    -0.265 OA
ATOM      7  N   UNL d   1      66.717  86.856  92.838  0.00  0.00    -0.246 N 
ATOM      8  C   UNL d   1      67.598  86.589  93.941  0.00  0.00     0.335 A 
ATOM      9  O   UNL d   1      68.295  85.558  93.976  0.00  0.00    -0.246 OA
ATOM     10  C   UNL d   1      66.655  85.864  91.729  0.00  0.00     0.139 C 
ATOM     11  N   UNL d   1      65.430  90.102  94.140  0.00  0.00    -0.243 N 
ATOM     12  C   UNL d   1      65.921  90.532  95.347  0.00  0.00     0.192 A 
ATOM     13  N   UNL d   1      66.795  89.682  95.845  0.00  0.00    -0.206 NA
ENDROOT
BRANCH  11  14
ATOM     14  C   UNL d   1      64.477  90.822  93.391  0.00  0.00     0.053 C 
BRANCH  14  15
ATOM     15  C   UNL d   1      63.415  91.411  92.524  0.00  0.00     0.268 C 
ATOM     16  O   UNL d   1      63.651  91.337  91.287  0.00  0.00    -0.637 OA
ATOM     17  O   UNL d   1      62.421  91.908  93.115  0.00  0.00    -0.637 OA
ENDBRANCH  14  15
ENDBRANCH  11  14
TORSDOF 2
ENDMDL
MODEL 12
REMARK VINA RESULT:      -5.1     11.963     12.979
REMARK  2 active torsions:
REMARK  status: ('A' for Active; 'I' for Inactive)
REMARK    1  A    between atoms: N_11  and  C_14 
REMARK    2  A    between atoms: C_14  and  C_15 
ROOT
ATOM      1  C   UNL d   1      67.912  76.246  92.027  0.00  0.00     0.137 C 
ATOM      2  N   UNL d   1      66.976  75.137  92.136  0.00  0.00    -0.263 N 
ATOM      3  C   UNL d   1      67.164  74.294  93.224  0.00  0.00     0.171 A 
ATOM      4  C   UNL d   1      66.359  73.214  93.452  0.00  0.00     0.164 A 
ATOM      5  C   UNL d   1      65.269  72.854  92.614  0.00  0.00     0.284 A 
ATOM      6  O   UNL d   1      64.554  71.882  92.835  0.00  0.00    -0.265 OA
ATOM      7  N   UNL d   1      65.082  73.724  91.494  0.00  0.00    -0.246 N 
ATOM      8  C   UNL d   1      65.917  74.864  91.238  0.00  0.00     0.335 A 
ATOM      9  O   UNL d   1      65.720  75.600  90.253  0.00  0.00    -0.246 OA
ATOM     10  C   UNL d   1      63.968  73.438  90.549  0.00  0.00     0.139 C 
ATOM     11  N   UNL d   1      66.845  72.636  94.594  0.00  0.00    -0.243 N 
ATOM     12  C   UNL d   1      67.916  73.390  95.002  0.00  0.00     0.192 A 
ATOM     13  N   UNL d   1      68.134  74.404  94.189  0.00  0.00    -0.206 NA
ENDROOT
BRANCH  11  14
ATOM     14  C   UNL d   1      66.396  71.492  95.283  0.00  0.00     0.053 C 
BRANCH  14  15
ATOM     15  C   UNL d   1      65.742  70.359  96.000  0.00  0.00     0.268 C 
ATOM     16  O   UNL d   1      64.483  70.427  96.045  0.00  0.00    -0.637 OA
ATOM     17  O   UNL d   1      66.508  69.478  96.471  0.00  0.00    -0.637 OA
ENDBRANCH  14  15
ENDBRANCH  11  14
TORSDOF 2
ENDMDL
MODEL 13
REMARK VINA RESULT:      -5.0      1.936      5.912
REMARK  2 active torsions:
REMARK  status: ('A' for Active; 'I' for Inactive)
REMARK    1  A    between atoms: N_11  and  C_14 
REMARK    2  A    between atoms: C_14  and  C_15 
ROOT
ATOM      1  C   UNL d   1      75.760  70.038  86.822  0.00  0.00     0.137 C 
ATOM      2  N   UNL d   1      76.241  69.433  88.055  0.00  0.00    -0.263 N 
ATOM      3  C   UNL d   1      77.140  68.384  87.901  0.00  0.00     0.171 A 
ATOM      4  C   UNL d   1      77.673  67.724  88.971  0.00  0.00     0.164 A 
ATOM      5  C   UNL d   1      77.369  68.041  90.323  0.00  0.00     0.284 A 
ATOM      6  O   UNL d   1      77.860  67.439  91.272  0.00  0.00    -0.265 OA
ATOM      7  N   UNL d   1      76.442  69.119  90.475  0.00  0.00    -0.246 N 
ATOM      8  C   UNL d   1      75.871  69.825  89.362  0.00  0.00     0.335 A 
ATOM      9  O   UNL d   1      75.069  70.762  89.536  0.00  0.00    -0.246 OA
ATOM     10  C   UNL d   1      76.052  69.534  91.851  0.00  0.00     0.139 C 
ATOM     11  N   UNL d   1      78.497  66.772  88.434  0.00  0.00    -0.243 N 
ATOM     12  C   UNL d   1      78.425  66.900  87.070  0.00  0.00     0.192 A 
ATOM     13  N   UNL d   1      77.607  67.871  86.717  0.00  0.00    -0.206 NA
ENDROOT
BRANCH  11  14
ATOM     14  C   UNL d   1      79.298  65.809  89.079  0.00  0.00     0.053 C 
BRANCH  14  15
ATOM     15  C   UNL d   1      80.138  64.906  89.920  0.00  0.00     0.268 C 
ATOM     16  O   UNL d   1      81.356  64.870  89.594  0.00  0.00    -0.637 OA
ATOM     17  O   UNL d   1      79.544  64.292  90.846  0.00  0.00    -0.637 OA
ENDBRANCH  14  15
ENDBRANCH  11  14
TORSDOF 2
ENDMDL
MODEL 14
REMARK VINA RESULT:      -5.0      2.465      5.445
REMARK  2 active torsions:
REMARK  status: ('A' for Active; 'I' for Inactive)
REMARK    1  A    between atoms: N_11  and  C_14 
REMARK    2  A    between atoms: C_14  and  C_15 
ROOT
ATOM      1  C   UNL d   1      78.224  72.393  89.768  0.00  0.00     0.137 C 
ATOM      2  N   UNL d   1      77.866  71.124  89.151  0.00  0.00    -0.263 N 
ATOM      3  C   UNL d   1      78.594  70.019  89.577  0.00  0.00     0.171 A 
ATOM      4  C   UNL d   1      78.365  68.767  89.083  0.00  0.00     0.164 A 
ATOM      5  C   UNL d   1      77.375  68.474  88.105  0.00  0.00     0.284 A 
ATOM      6  O   UNL d   1      77.181  67.342  87.676  0.00  0.00    -0.265 OA
ATOM      7  N   UNL d   1      76.631  69.615  87.670  0.00  0.00    -0.246 N 
ATOM      8  C   UNL d   1      76.857  70.940  88.177  0.00  0.00     0.335 A 
ATOM      9  O   UNL d   1      76.186  71.908  87.774  0.00  0.00    -0.246 OA
ATOM     10  C   UNL d   1      75.569  69.423  86.645  0.00  0.00     0.139 C 
ATOM     11  N   UNL d   1      79.260  67.956  89.727  0.00  0.00    -0.243 N 
ATOM     12  C   UNL d   1      79.986  68.752  90.577  0.00  0.00     0.192 A 
ATOM     13  N   UNL d   1      79.604  70.011  90.506  0.00  0.00    -0.206 NA
ENDROOT
BRANCH  11  14
ATOM     14  C   UNL d   1      79.465  66.567  89.603  0.00  0.00     0.053 C 
BRANCH  14  15
ATOM     15  C   UNL d   1      79.826  65.142  89.345  0.00  0.00     0.268 C 
ATOM     16  O   UNL d   1      78.851  64.406  89.030  0.00  0.00    -0.637 OA
ATOM     17  O   UNL d   1      81.042  64.841  89.470  0.00  0.00    -0.637 OA
ENDBRANCH  14  15
ENDBRANCH  11  14
TORSDOF 2
ENDMDL
MODEL 15
REMARK VINA RESULT:      -5.0     12.967     14.860
REMARK  2 active torsions:
REMARK  status: ('A' for Active; 'I' for Inactive)
REMARK    1  A    between atoms: N_11  and  C_14 
REMARK    2  A    between atoms: C_14  and  C_15 
ROOT
ATOM      1  C   UNL d   1      78.579  81.818  98.234  0.00  0.00     0.137 C 
ATOM      2  N   UNL d   1      79.478  80.709  97.950  0.00  0.00    -0.263 N 
ATOM      3  C   UNL d   1      80.591  81.018  97.176  0.00  0.00     0.171 A 
ATOM      4  C   UNL d   1      81.518  80.076  96.833  0.00  0.00     0.164 A 
ATOM      5  C   UNL d   1      81.440  78.713  97.228  0.00  0.00     0.284 A 
ATOM      6  O   UNL d   1      82.284  77.881  96.913  0.00  0.00    -0.265 OA
ATOM      7  N   UNL d   1      80.292  78.401  98.022  0.00  0.00    -0.246 N 
ATOM      8  C   UNL d   1      79.305  79.377  98.393  0.00  0.00     0.335 A 
ATOM      9  O   UNL d   1      78.320  79.066  99.088  0.00  0.00    -0.246 OA
ATOM     10  C   UNL d   1      80.109  76.999  98.489  0.00  0.00     0.139 C 
ATOM     11  N   UNL d   1      82.448  80.743  96.082  0.00  0.00    -0.243 N 
ATOM     12  C   UNL d   1      82.042  82.051  96.006  0.00  0.00     0.192 A 
ATOM     13  N   UNL d   1      80.916  82.248  96.661  0.00  0.00    -0.206 NA
ENDROOT
BRANCH  11  14
ATOM     14  C   UNL d   1      83.621  80.260  95.468  0.00  0.00     0.053 C 
BRANCH  14  15
ATOM     15  C   UNL d   1      84.808  79.852  94.661  0.00  0.00     0.268 C 
ATOM     16  O   UNL d   1      85.654  80.770  94.476  0.00  0.00    -0.637 OA
ATOM     17  O   UNL d   1      84.830  78.658  94.262  0.00  0.00    -0.637 OA
ENDBRANCH  14  15
ENDBRANCH  11  14
TORSDOF 2
ENDMDL
MODEL 16
REMARK VINA RESULT:      -5.0      4.090      6.647
REMARK  2 active torsions:
REMARK  status: ('A' for Active; 'I' for Inactive)
REMARK    1  A    between atoms: N_11  and  C_14 
REMARK    2  A    between atoms: C_14  and  C_15 
ROOT
ATOM      1  C   UNL d   1      72.607  73.650  91.434  0.00  0.00     0.137 C 
ATOM      2  N   UNL d   1      73.934  73.249  90.989  0.00  0.00    -0.263 N 
ATOM      3  C   UNL d   1      74.892  74.256  90.965  0.00  0.00     0.171 A 
ATOM      4  C   UNL d   1      76.178  74.023  90.570  0.00  0.00     0.164 A 
ATOM      5  C   UNL d   1      76.656  72.750  90.154  0.00  0.00     0.284 A 
ATOM      6  O   UNL d   1      77.816  72.558  89.806  0.00  0.00    -0.265 OA
ATOM      7  N   UNL d   1      75.666  71.719  90.179  0.00  0.00    -0.246 N 
ATOM      8  C   UNL d   1      74.308  71.944  90.591  0.00  0.00     0.335 A 
ATOM      9  O   UNL d   1      73.475  71.019  90.601  0.00  0.00    -0.246 OA
ATOM     10  C   UNL d   1      76.057  70.345  89.761  0.00  0.00     0.139 C 
ATOM     11  N   UNL d   1      76.813  75.231  90.677  0.00  0.00    -0.243 N 
ATOM     12  C   UNL d   1      75.885  76.135  91.129  0.00  0.00     0.192 A 
ATOM     13  N   UNL d   1      74.709  75.571  91.313  0.00  0.00    -0.206 NA
ENDROOT
BRANCH  11  14
ATOM     14  C   UNL d   1      78.152  75.570  90.397  0.00  0.00     0.053 C 
BRANCH  14  15
ATOM     15  C   UNL d   1      79.617  75.763  90.194  0.00  0.00     0.268 C 
ATOM     16  O   UNL d   1      80.048  75.357  89.080  0.00  0.00    -0.637 OA
ATOM     17  O   UNL d   1      80.248  76.300  91.142  0.00  0.00    -0.637 OA
ENDBRANCH  14  15
ENDBRANCH  11  14
TORSDOF 2
ENDMDL
MODEL 17
REMARK VINA RESULT:      -4.9     20.200     23.155
REMARK  2 active torsions:
REMARK  status: ('A' for Active; 'I' for Inactive)
REMARK    1  A    between atoms: N_11  and  C_14 
REMARK    2  A    between atoms: C_14  and  C_15 
ROOT
ATOM      1  C   UNL d   1      65.676  84.312  91.838  0.00  0.00     0.137 C 
ATOM      2  N   UNL d   1      64.702  85.386  91.715  0.00  0.00    -0.263 N 
ATOM      3  C   UNL d   1      65.120  86.633  92.164  0.00  0.00     0.171 A 
ATOM      4  C   UNL d   1      64.311  87.732  92.108  0.00  0.00     0.164 A 
ATOM      5  C   UNL d   1      62.986  87.709  91.592  0.00  0.00     0.284 A 
ATOM      6  O   UNL d   1      62.274  88.707  91.547  0.00  0.00    -0.265 OA
ATOM      7  N   UNL d   1      62.561  86.423  91.133  0.00  0.00    -0.246 N 
ATOM      8  C   UNL d   1      63.398  85.256  91.184  0.00  0.00     0.335 A 
ATOM      9  O   UNL d   1      62.992  84.153  90.772  0.00  0.00    -0.246 OA
ATOM     10  C   UNL d   1      61.188  86.284  90.574  0.00  0.00     0.139 C 
ATOM     11  N   UNL d   1      65.054  88.755  92.632  0.00  0.00    -0.243 N 
ATOM     12  C   UNL d   1      66.273  88.230  92.979  0.00  0.00     0.192 A 
ATOM     13  N   UNL d   1      66.342  86.943  92.706  0.00  0.00    -0.206 NA
ENDROOT
BRANCH  11  14
ATOM     14  C   UNL d   1      64.713  90.110  92.817  0.00  0.00     0.053 C 
BRANCH  14  15
ATOM     15  C   UNL d   1      64.321  91.550  92.820  0.00  0.00     0.268 C 
ATOM     16  O   UNL d   1      65.213  92.333  93.246  0.00  0.00    -0.637 OA
ATOM     17  O   UNL d   1      63.163  91.815  92.403  0.00  0.00    -0.637 OA
ENDBRANCH  14  15
ENDBRANCH  11  14
TORSDOF 2
ENDMDL
MODEL 18
REMARK VINA RESULT:      -4.9     11.959     13.868
REMARK  2 active torsions:
REMARK  status: ('A' for Active; 'I' for Inactive)
REMARK    1  A    between atoms: N_11  and  C_14 
REMARK    2  A    between atoms: C_14  and  C_15 
ROOT
ATOM      1  C   UNL d   1      85.020  81.393  96.740  0.00  0.00     0.137 C 
ATOM      2  N   UNL d   1      83.770  80.931  96.152  0.00  0.00    -0.263 N 
ATOM      3  C   UNL d   1      83.877  79.860  95.273  0.00  0.00     0.171 A 
ATOM      4  C   UNL d   1      82.786  79.324  94.649  0.00  0.00     0.164 A 
ATOM      5  C   UNL d   1      81.459  79.798  94.837  0.00  0.00     0.284 A 
ATOM      6  O   UNL d   1      80.491  79.301  94.271  0.00  0.00    -0.265 OA
ATOM      7  N   UNL d   1      81.357  80.901  95.742  0.00  0.00    -0.246 N 
ATOM      8  C   UNL d   1      82.491  81.479  96.407  0.00  0.00     0.335 A 
ATOM      9  O   UNL d   1      82.360  82.437  97.190  0.00  0.00    -0.246 OA
ATOM     10  C   UNL d   1      80.011  81.478  96.011  0.00  0.00     0.139 C 
ATOM     11  N   UNL d   1      83.278  78.308  93.875  0.00  0.00    -0.243 N 
ATOM     12  C   UNL d   1      84.636  78.277  94.065  0.00  0.00     0.192 A 
ATOM     13  N   UNL d   1      85.029  79.209  94.909  0.00  0.00    -0.206 NA
ENDROOT
BRANCH  11  14
ATOM     14  C   UNL d   1      82.595  77.420  93.019  0.00  0.00     0.053 C 
BRANCH  14  15
ATOM     15  C   UNL d   1      81.739  76.465  92.257  0.00  0.00     0.268 C 
ATOM     16  O   UNL d   1      82.379  75.616  91.578  0.00  0.00    -0.637 OA
ATOM     17  O   UNL d   1      80.493  76.612  92.376  0.00  0.00    -0.637 OA
ENDBRANCH  14  15
ENDBRANCH  11  14
TORSDOF 2
ENDMDL
MODEL 19
REMARK VINA RESULT:      -4.8      3.071      5.821
REMARK  2 active torsions:
REMARK  status: ('A' for Active; 'I' for Inactive)
REMARK    1  A    between atoms: N_11  and  C_14 
REMARK    2  A    between atoms: C_14  and  C_15 
ROOT
ATOM      1  C   UNL d   1      76.505  73.883  90.227  0.00  0.00     0.137 C 
ATOM      2  N   UNL d   1      77.354  72.705  90.334  0.00  0.00    -0.263 N 
ATOM      3  C   UNL d   1      77.126  71.710  89.390  0.00  0.00     0.171 A 
ATOM      4  C   UNL d   1      77.849  70.552  89.371  0.00  0.00     0.164 A 
ATOM      5  C   UNL d   1      78.888  70.256  90.296  0.00  0.00     0.284 A 
ATOM      6  O   UNL d   1      79.529  69.211  90.261  0.00  0.00    -0.265 OA
ATOM      7  N   UNL d   1      79.116  71.282  91.265  0.00  0.00    -0.246 N 
ATOM      8  C   UNL d   1      78.367  72.508  91.301  0.00  0.00     0.335 A 
ATOM      9  O   UNL d   1      78.598  73.379  92.160  0.00  0.00    -0.246 OA
ATOM     10  C   UNL d   1      80.182  71.076  92.284  0.00  0.00     0.139 C 
ATOM     11  N   UNL d   1      77.347  69.831  88.322  0.00  0.00    -0.243 N 
ATOM     12  C   UNL d   1      76.348  70.583  87.757  0.00  0.00     0.192 A 
ATOM     13  N   UNL d   1      76.192  71.731  88.386  0.00  0.00    -0.206 NA
ENDROOT
BRANCH  11  14
ATOM     14  C   UNL d   1      77.721  68.558  87.845  0.00  0.00     0.053 C 
BRANCH  14  15
ATOM     15  C   UNL d   1      78.058  67.274  87.164  0.00  0.00     0.268 C 
ATOM     16  O   UNL d   1      78.455  67.403  85.973  0.00  0.00    -0.637 OA
ATOM     17  O   UNL d   1      77.911  66.225  87.844  0.00  0.00    -0.637 OA
ENDBRANCH  14  15
ENDBRANCH  11  14
TORSDOF 2
ENDMDL
MODEL 20
REMARK VINA RESULT:      -4.7     22.856     24.779
REMARK  2 active torsions:
REMARK  status: ('A' for Active; 'I' for Inactive)
REMARK    1  A    between atoms: N_11  and  C_14 
REMARK    2  A    between atoms: C_14  and  C_15 
ROOT
ATOM      1  C   UNL d   1      61.461  84.447  90.580  0.00  0.00     0.137 C 
ATOM      2  N   UNL d   1      61.156  85.677  91.297  0.00  0.00    -0.263 N 
ATOM      3  C   UNL d   1      62.172  86.625  91.325  0.00  0.00     0.171 A 
ATOM      4  C   UNL d   1      62.025  87.826  91.960  0.00  0.00     0.164 A 
ATOM      5  C   UNL d   1      60.840  88.216  92.642  0.00  0.00     0.284 A 
ATOM      6  O   UNL d   1      60.724  89.299  93.205  0.00  0.00    -0.265 OA
ATOM      7  N   UNL d   1      59.800  87.235  92.611  0.00  0.00    -0.246 N 
ATOM      8  C   UNL d   1      59.935  85.967  91.948  0.00  0.00     0.335 A 
ATOM      9  O   UNL d   1      59.005  85.140  91.942  0.00  0.00    -0.246 OA
ATOM     10  C   UNL d   1      58.513  87.539  93.296  0.00  0.00     0.139 C 
ATOM     11  N   UNL d   1      63.213  88.479  91.776  0.00  0.00    -0.243 N 
ATOM     12  C   UNL d   1      64.020  87.648  91.041  0.00  0.00     0.192 A 
ATOM     13  N   UNL d   1      63.414  86.515  90.752  0.00  0.00    -0.206 NA
ENDROOT
BRANCH  11  14
ATOM     14  C   UNL d   1      63.615  89.755  92.220  0.00  0.00     0.053 C 
BRANCH  14  15
ATOM     15  C   UNL d   1      63.869  91.170  92.619  0.00  0.00     0.268 C 
ATOM     16  O   UNL d   1      64.977  91.361  93.193  0.00  0.00    -0.637 OA
ATOM     17  O   UNL d   1      62.963  92.000  92.344  0.00  0.00    -0.637 OA
ENDBRANCH  14  15
ENDBRANCH  11  14
TORSDOF 2
ENDMDL
