MODEL 1
REMARK VINA RESULT:      -4.4      0.000      0.000
REMARK  3 active torsions:
REMARK  status: ('A' for Active; 'I' for Inactive)
REMARK    1  A    between atoms: C_2  and  C_4 
REMARK       I    between atoms: C_4  and  N_6 
REMARK    2  A    between atoms: N_6  and  C_7 
REMARK    3  A    between atoms: C_7  and  C_8 
ROOT
ATOM      1  C   UNL d   1      83.222  81.814  96.355  0.00  0.00     0.293 C 
ATOM      2  O   UNL d   1      83.711  82.454  97.296  0.00  0.00    -0.264 OA
ATOM      3  N   UNL d   1      81.914  81.609  96.099  0.00  0.00    -0.158 NA
ENDROOT
BRANCH   1   4
ATOM      4  C   UNL d   1      84.199  81.155  95.333  0.00  0.00     0.091 C 
ATOM      5  C   UNL d   1      83.739  80.918  93.877  0.00  0.00     0.048 C 
ATOM      6  S   UNL d   1      85.841  80.603  95.573  0.00  0.00    -0.078 SA
ENDBRANCH   1   4
BRANCH   3   7
ATOM      7  C   UNL d   1      80.937  82.228  97.062  0.00  0.00     0.071 C 
BRANCH   7   8
ATOM      8  C   UNL d   1      80.031  82.901  98.106  0.00  0.00     0.270 C 
ATOM      9  O   UNL d   1      79.686  84.112  97.920  0.00  0.00    -0.637 OA
ATOM     10  O   UNL d   1      79.682  82.183  99.102  0.00  0.00    -0.637 OA
ENDBRANCH   7   8
ENDBRANCH   3   7
TORSDOF 3
ENDMDL
MODEL 2
REMARK VINA RESULT:      -4.4      1.476      1.671
REMARK  3 active torsions:
REMARK  status: ('A' for Active; 'I' for Inactive)
REMARK    1  A    between atoms: C_2  and  C_4 
REMARK       I    between atoms: C_4  and  N_6 
REMARK    2  A    between atoms: N_6  and  C_7 
REMARK    3  A    between atoms: C_7  and  C_8 
ROOT
ATOM      1  C   UNL d   1      84.207  81.620  96.522  0.00  0.00     0.293 C 
ATOM      2  O   UNL d   1      84.392  82.742  97.014  0.00  0.00    -0.264 OA
ATOM      3  N   UNL d   1      83.025  81.008  96.306  0.00  0.00    -0.158 NA
ENDROOT
BRANCH   1   4
ATOM      4  C   UNL d   1      85.459  80.795  96.091  0.00  0.00     0.091 C 
ATOM      5  C   UNL d   1      86.189  81.141  94.774  0.00  0.00     0.048 C 
ATOM      6  S   UNL d   1      86.229  79.451  96.903  0.00  0.00    -0.078 SA
ENDBRANCH   1   4
BRANCH   3   7
ATOM      7  C   UNL d   1      81.791  81.770  96.708  0.00  0.00     0.071 C 
BRANCH   7   8
ATOM      8  C   UNL d   1      80.495  82.452  97.175  0.00  0.00     0.270 C 
ATOM      9  O   UNL d   1      79.382  81.972  96.784  0.00  0.00    -0.637 OA
ATOM     10  O   UNL d   1      80.629  83.468  97.935  0.00  0.00    -0.637 OA
ENDBRANCH   7   8
ENDBRANCH   3   7
TORSDOF 3
ENDMDL
MODEL 3
REMARK VINA RESULT:      -3.9     15.306     15.902
REMARK  3 active torsions:
REMARK  status: ('A' for Active; 'I' for Inactive)
REMARK    1  A    between atoms: C_2  and  C_4 
REMARK       I    between atoms: C_4  and  N_6 
REMARK    2  A    between atoms: N_6  and  C_7 
REMARK    3  A    between atoms: C_7  and  C_8 
ROOT
ATOM      1  C   UNL d   1      76.481  69.011  88.230  0.00  0.00     0.293 C 
ATOM      2  O   UNL d   1      75.676  69.358  87.355  0.00  0.00    -0.264 OA
ATOM      3  N   UNL d   1      76.576  69.487  89.488  0.00  0.00    -0.158 NA
ENDROOT
BRANCH   1   4
ATOM      4  C   UNL d   1      77.516  67.900  87.872  0.00  0.00     0.091 C 
ATOM      5  C   UNL d   1      78.093  67.823  86.441  0.00  0.00     0.048 C 
ATOM      6  S   UNL d   1      78.179  66.639  88.888  0.00  0.00    -0.078 SA
ENDBRANCH   1   4
BRANCH   3   7
ATOM      7  C   UNL d   1      75.596  70.562  89.875  0.00  0.00     0.071 C 
BRANCH   7   8
ATOM      8  C   UNL d   1      74.684  71.716  90.322  0.00  0.00     0.270 C 
ATOM      9  O   UNL d   1      73.559  71.434  90.846  0.00  0.00    -0.637 OA
ATOM     10  O   UNL d   1      75.128  72.897  90.131  0.00  0.00    -0.637 OA
ENDBRANCH   7   8
ENDBRANCH   3   7
TORSDOF 3
ENDMDL
MODEL 4
REMARK VINA RESULT:      -3.9     13.272     14.239
REMARK  3 active torsions:
REMARK  status: ('A' for Active; 'I' for Inactive)
REMARK    1  A    between atoms: C_2  and  C_4 
REMARK       I    between atoms: C_4  and  N_6 
REMARK    2  A    between atoms: N_6  and  C_7 
REMARK    3  A    between atoms: C_7  and  C_8 
ROOT
ATOM      1  C   UNL d   1      73.156  90.018 103.010  0.00  0.00     0.293 C 
ATOM      2  O   UNL d   1      74.249  89.737 102.499  0.00  0.00    -0.264 OA
ATOM      3  N   UNL d   1      71.934  89.847 102.468  0.00  0.00    -0.158 NA
ENDROOT
BRANCH   1   4
ATOM      4  C   UNL d   1      73.156  90.642 104.440  0.00  0.00     0.091 C 
ATOM      5  C   UNL d   1      74.173  91.751 104.792  0.00  0.00     0.048 C 
ATOM      6  S   UNL d   1      72.128  90.273 105.806  0.00  0.00    -0.078 SA
ENDBRANCH   1   4
BRANCH   3   7
ATOM      7  C   UNL d   1      71.889  89.248 101.088  0.00  0.00     0.071 C 
BRANCH   7   8
ATOM      8  C   UNL d   1      71.869  88.531  99.728  0.00  0.00     0.270 C 
ATOM      9  O   UNL d   1      70.761  88.434  99.109  0.00  0.00    -0.637 OA
ATOM     10  O   UNL d   1      72.985  88.076  99.309  0.00  0.00    -0.637 OA
ENDBRANCH   7   8
ENDBRANCH   3   7
TORSDOF 3
ENDMDL
MODEL 5
REMARK VINA RESULT:      -3.8     16.059     16.941
REMARK  3 active torsions:
REMARK  status: ('A' for Active; 'I' for Inactive)
REMARK    1  A    between atoms: C_2  and  C_4 
REMARK       I    between atoms: C_4  and  N_6 
REMARK    2  A    between atoms: N_6  and  C_7 
REMARK    3  A    between atoms: C_7  and  C_8 
ROOT
ATOM      1  C   UNL d   1      76.327  70.081  88.402  0.00  0.00     0.293 C 
ATOM      2  O   UNL d   1      76.143  70.149  87.179  0.00  0.00    -0.264 OA
ATOM      3  N   UNL d   1      77.025  69.142  89.071  0.00  0.00    -0.158 NA
ENDROOT
BRANCH   1   4
ATOM      4  C   UNL d   1      75.695  71.189  89.299  0.00  0.00     0.091 C 
ATOM      5  C   UNL d   1      76.150  72.657  89.139  0.00  0.00     0.048 C 
ATOM      6  S   UNL d   1      74.473  71.041  90.543  0.00  0.00    -0.078 SA
ENDBRANCH   1   4
BRANCH   3   7
ATOM      7  C   UNL d   1      77.652  68.054  88.243  0.00  0.00     0.071 C 
BRANCH   7   8
ATOM      8  C   UNL d   1      78.279  67.011  87.302  0.00  0.00     0.270 C 
ATOM      9  O   UNL d   1      78.361  67.284  86.061  0.00  0.00    -0.637 OA
ATOM     10  O   UNL d   1      78.679  65.926  87.841  0.00  0.00    -0.637 OA
ENDBRANCH   7   8
ENDBRANCH   3   7
TORSDOF 3
ENDMDL
MODEL 6
REMARK VINA RESULT:      -3.7     14.193     14.713
REMARK  3 active torsions:
REMARK  status: ('A' for Active; 'I' for Inactive)
REMARK    1  A    between atoms: C_2  and  C_4 
REMARK       I    between atoms: C_4  and  N_6 
REMARK    2  A    between atoms: N_6  and  C_7 
REMARK    3  A    between atoms: C_7  and  C_8 
ROOT
ATOM      1  C   UNL d   1      74.790  70.648  89.760  0.00  0.00     0.293 C 
ATOM      2  O   UNL d   1      73.666  70.214  90.048  0.00  0.00    -0.264 OA
ATOM      3  N   UNL d   1      75.281  71.877  90.017  0.00  0.00    -0.158 NA
ENDROOT
BRANCH   1   4
ATOM      4  C   UNL d   1      75.774  69.693  89.017  0.00  0.00     0.091 C 
ATOM      5  C   UNL d   1      76.907  68.996  89.804  0.00  0.00     0.048 C 
ATOM      6  S   UNL d   1      75.815  69.246  87.326  0.00  0.00    -0.078 SA
ENDBRANCH   1   4
BRANCH   3   7
ATOM      7  C   UNL d   1      74.364  72.831  90.733  0.00  0.00     0.071 C 
BRANCH   7   8
ATOM      8  C   UNL d   1      73.337  73.758  91.404  0.00  0.00     0.270 C 
ATOM      9  O   UNL d   1      72.279  73.243  91.889  0.00  0.00    -0.637 OA
ATOM     10  O   UNL d   1      73.624  75.001  91.427  0.00  0.00    -0.637 OA
ENDBRANCH   7   8
ENDBRANCH   3   7
TORSDOF 3
ENDMDL
MODEL 7
REMARK VINA RESULT:      -3.7     21.173     21.690
REMARK  3 active torsions:
REMARK  status: ('A' for Active; 'I' for Inactive)
REMARK    1  A    between atoms: C_2  and  C_4 
REMARK       I    between atoms: C_4  and  N_6 
REMARK    2  A    between atoms: N_6  and  C_7 
REMARK    3  A    between atoms: C_7  and  C_8 
ROOT
ATOM      1  C   UNL d   1      62.513  88.975  91.273  0.00  0.00     0.293 C 
ATOM      2  O   UNL d   1      63.250  89.704  90.595  0.00  0.00    -0.264 OA
ATOM      3  N   UNL d   1      62.260  89.073  92.594  0.00  0.00    -0.158 NA
ENDROOT
BRANCH   1   4
ATOM      4  C   UNL d   1      61.780  87.803  90.552  0.00  0.00     0.091 C 
ATOM      5  C   UNL d   1      61.429  87.926  89.052  0.00  0.00     0.048 C 
ATOM      6  S   UNL d   1      61.250  86.266  91.198  0.00  0.00    -0.078 SA
ENDBRANCH   1   4
BRANCH   3   7
ATOM      7  C   UNL d   1      62.948  90.191  93.329  0.00  0.00     0.071 C 
BRANCH   7   8
ATOM      8  C   UNL d   1      63.733  91.334  93.995  0.00  0.00     0.270 C 
ATOM      9  O   UNL d   1      64.702  91.857  93.357  0.00  0.00    -0.637 OA
ATOM     10  O   UNL d   1      63.349  91.682  95.161  0.00  0.00    -0.637 OA
ENDBRANCH   7   8
ENDBRANCH   3   7
TORSDOF 3
ENDMDL
MODEL 8
REMARK VINA RESULT:      -3.7     20.257     20.654
REMARK  3 active torsions:
REMARK  status: ('A' for Active; 'I' for Inactive)
REMARK    1  A    between atoms: C_2  and  C_4 
REMARK       I    between atoms: C_4  and  N_6 
REMARK    2  A    between atoms: N_6  and  C_7 
REMARK    3  A    between atoms: C_7  and  C_8 
ROOT
ATOM      1  C   UNL d   1      64.729  73.006  91.842  0.00  0.00     0.293 C 
ATOM      2  O   UNL d   1      64.382  72.094  91.078  0.00  0.00    -0.264 OA
ATOM      3  N   UNL d   1      64.831  74.319  91.553  0.00  0.00    -0.158 NA
ENDROOT
BRANCH   1   4
ATOM      4  C   UNL d   1      65.096  72.629  93.311  0.00  0.00     0.091 C 
ATOM      5  C   UNL d   1      64.059  71.904  94.198  0.00  0.00     0.048 C 
ATOM      6  S   UNL d   1      66.586  72.908  94.183  0.00  0.00    -0.078 SA
ENDBRANCH   1   4
BRANCH   3   7
ATOM      7  C   UNL d   1      64.486  74.725  90.146  0.00  0.00     0.071 C 
BRANCH   7   8
ATOM      8  C   UNL d   1      64.240  75.191  88.701  0.00  0.00     0.270 C 
ATOM      9  O   UNL d   1      64.566  74.414  87.748  0.00  0.00    -0.637 OA
ATOM     10  O   UNL d   1      63.715  76.346  88.558  0.00  0.00    -0.637 OA
ENDBRANCH   7   8
ENDBRANCH   3   7
TORSDOF 3
ENDMDL
MODEL 9
REMARK VINA RESULT:      -3.7     17.237     18.070
REMARK  3 active torsions:
REMARK  status: ('A' for Active; 'I' for Inactive)
REMARK    1  A    between atoms: C_2  and  C_4 
REMARK       I    between atoms: C_4  and  N_6 
REMARK    2  A    between atoms: N_6  and  C_7 
REMARK    3  A    between atoms: C_7  and  C_8 
ROOT
ATOM      1  C   UNL d   1      77.612  68.144  87.602  0.00  0.00     0.293 C 
ATOM      2  O   UNL d   1      78.259  67.885  86.577  0.00  0.00    -0.264 OA
ATOM      3  N   UNL d   1      77.685  67.518  88.794  0.00  0.00    -0.158 NA
ENDROOT
BRANCH   1   4
ATOM      4  C   UNL d   1      76.590  69.321  87.543  0.00  0.00     0.091 C 
ATOM      5  C   UNL d   1      75.752  69.544  86.264  0.00  0.00     0.048 C 
ATOM      6  S   UNL d   1      76.207  70.513  88.764  0.00  0.00    -0.078 SA
ENDBRANCH   1   4
BRANCH   3   7
ATOM      7  C   UNL d   1      78.660  66.376  88.894  0.00  0.00     0.071 C 
BRANCH   7   8
ATOM      8  C   UNL d   1      79.582  65.146  88.928  0.00  0.00     0.270 C 
ATOM      9  O   UNL d   1      80.773  65.291  89.355  0.00  0.00    -0.637 OA
ATOM     10  O   UNL d   1      79.080  64.047  88.517  0.00  0.00    -0.637 OA
ENDBRANCH   7   8
ENDBRANCH   3   7
TORSDOF 3
ENDMDL
MODEL 10
REMARK VINA RESULT:      -3.6     14.633     16.216
REMARK  3 active torsions:
REMARK  status: ('A' for Active; 'I' for Inactive)
REMARK    1  A    between atoms: C_2  and  C_4 
REMARK       I    between atoms: C_4  and  N_6 
REMARK    2  A    between atoms: N_6  and  C_7 
REMARK    3  A    between atoms: C_7  and  C_8 
ROOT
ATOM      1  C   UNL d   1      69.196  89.184 103.347  0.00  0.00     0.293 C 
ATOM      2  O   UNL d   1      69.195  90.253 103.974  0.00  0.00    -0.264 OA
ATOM      3  N   UNL d   1      70.262  88.552 102.814  0.00  0.00    -0.158 NA
ENDROOT
BRANCH   1   4
ATOM      4  C   UNL d   1      67.831  88.461 103.131  0.00  0.00     0.091 C 
ATOM      5  C   UNL d   1      67.463  87.924 101.729  0.00  0.00     0.048 C 
ATOM      6  S   UNL d   1      66.560  88.132 104.286  0.00  0.00    -0.078 SA
ENDBRANCH   1   4
BRANCH   3   7
ATOM      7  C   UNL d   1      71.599  89.217 103.001  0.00  0.00     0.071 C 
BRANCH   7   8
ATOM      8  C   UNL d   1      72.938  89.966 103.100  0.00  0.00     0.270 C 
ATOM      9  O   UNL d   1      73.064  90.871 103.986  0.00  0.00    -0.637 OA
ATOM     10  O   UNL d   1      73.845  89.621 102.271  0.00  0.00    -0.637 OA
ENDBRANCH   7   8
ENDBRANCH   3   7
TORSDOF 3
ENDMDL
MODEL 11
REMARK VINA RESULT:      -3.6     14.026     14.766
REMARK  3 active torsions:
REMARK  status: ('A' for Active; 'I' for Inactive)
REMARK    1  A    between atoms: C_2  and  C_4 
REMARK       I    between atoms: C_4  and  N_6 
REMARK    2  A    between atoms: N_6  and  C_7 
REMARK    3  A    between atoms: C_7  and  C_8 
ROOT
ATOM      1  C   UNL d   1      72.271  89.302 103.369  0.00  0.00     0.293 C 
ATOM      2  O   UNL d   1      71.871  88.836 104.445  0.00  0.00    -0.264 OA
ATOM      3  N   UNL d   1      73.084  90.362 103.191  0.00  0.00    -0.158 NA
ENDROOT
BRANCH   1   4
ATOM      4  C   UNL d   1      71.802  88.609 102.052  0.00  0.00     0.091 C 
ATOM      5  C   UNL d   1      71.219  87.179 102.105  0.00  0.00     0.048 C 
ATOM      6  S   UNL d   1      71.825  89.220 100.414  0.00  0.00    -0.078 SA
ENDBRANCH   1   4
BRANCH   3   7
ATOM      7  C   UNL d   1      73.561  91.060 104.436  0.00  0.00     0.071 C 
BRANCH   7   8
ATOM      8  C   UNL d   1      73.993  91.871 105.669  0.00  0.00     0.270 C 
ATOM      9  O   UNL d   1      73.091  92.372 106.413  0.00  0.00    -0.637 OA
ATOM     10  O   UNL d   1      75.250  91.985 105.861  0.00  0.00    -0.637 OA
ENDBRANCH   7   8
ENDBRANCH   3   7
TORSDOF 3
ENDMDL
MODEL 12
REMARK VINA RESULT:      -3.6     16.958     17.635
REMARK  3 active torsions:
REMARK  status: ('A' for Active; 'I' for Inactive)
REMARK    1  A    between atoms: C_2  and  C_4 
REMARK       I    between atoms: C_4  and  N_6 
REMARK    2  A    between atoms: N_6  and  C_7 
REMARK    3  A    between atoms: C_7  and  C_8 
ROOT
ATOM      1  C   UNL d   1      78.470  66.609  88.228  0.00  0.00     0.293 C 
ATOM      2  O   UNL d   1      78.378  66.532  86.995  0.00  0.00    -0.264 OA
ATOM      3  N   UNL d   1      77.921  67.544  89.030  0.00  0.00    -0.158 NA
ENDROOT
BRANCH   1   4
ATOM      4  C   UNL d   1      79.308  65.522  88.969  0.00  0.00     0.091 C 
ATOM      5  C   UNL d   1      80.370  65.949  90.007  0.00  0.00     0.048 C 
ATOM      6  S   UNL d   1      79.244  63.781  88.812  0.00  0.00    -0.078 SA
ENDBRANCH   1   4
BRANCH   3   7
ATOM      7  C   UNL d   1      77.104  68.612  88.355  0.00  0.00     0.071 C 
BRANCH   7   8
ATOM      8  C   UNL d   1      76.262  69.633  87.571  0.00  0.00     0.270 C 
ATOM      9  O   UNL d   1      76.260  70.845  87.960  0.00  0.00    -0.637 OA
ATOM     10  O   UNL d   1      75.613  69.183  86.568  0.00  0.00    -0.637 OA
ENDBRANCH   7   8
ENDBRANCH   3   7
TORSDOF 3
ENDMDL
MODEL 13
REMARK VINA RESULT:      -3.6      6.194      8.158
REMARK  3 active torsions:
REMARK  status: ('A' for Active; 'I' for Inactive)
REMARK    1  A    between atoms: C_2  and  C_4 
REMARK       I    between atoms: C_4  and  N_6 
REMARK    2  A    between atoms: N_6  and  C_7 
REMARK    3  A    between atoms: C_7  and  C_8 
ROOT
ATOM      1  C   UNL d   1      75.895  80.721  99.835  0.00  0.00     0.293 C 
ATOM      2  O   UNL d   1      75.700  81.466  98.865  0.00  0.00    -0.264 OA
ATOM      3  N   UNL d   1      77.078  80.237 100.268  0.00  0.00    -0.158 NA
ENDROOT
BRANCH   1   4
ATOM      4  C   UNL d   1      74.659  80.272 100.673  0.00  0.00     0.091 C 
ATOM      5  C   UNL d   1      74.806  80.048 102.195  0.00  0.00     0.048 C 
ATOM      6  S   UNL d   1      73.022  79.957 100.145  0.00  0.00    -0.078 SA
ENDBRANCH   1   4
BRANCH   3   7
ATOM      7  C   UNL d   1      78.297  80.647  99.487  0.00  0.00     0.071 C 
BRANCH   7   8
ATOM      8  C   UNL d   1      79.604  81.057  98.790  0.00  0.00     0.270 C 
ATOM      9  O   UNL d   1      79.832  80.615  97.618  0.00  0.00    -0.637 OA
ATOM     10  O   UNL d   1      80.383  81.825  99.447  0.00  0.00    -0.637 OA
ENDBRANCH   7   8
ENDBRANCH   3   7
TORSDOF 3
ENDMDL
MODEL 14
REMARK VINA RESULT:      -3.5     19.442     20.224
REMARK  3 active torsions:
REMARK  status: ('A' for Active; 'I' for Inactive)
REMARK    1  A    between atoms: C_2  and  C_4 
REMARK       I    between atoms: C_4  and  N_6 
REMARK    2  A    between atoms: N_6  and  C_7 
REMARK    3  A    between atoms: C_7  and  C_8 
ROOT
ATOM      1  C   UNL d   1      64.787  72.231  93.653  0.00  0.00     0.293 C 
ATOM      2  O   UNL d   1      63.887  71.887  94.432  0.00  0.00    -0.264 OA
ATOM      3  N   UNL d   1      66.111  72.015  93.789  0.00  0.00    -0.158 NA
ENDROOT
BRANCH   1   4
ATOM      4  C   UNL d   1      64.380  73.004  92.361  0.00  0.00     0.091 C 
ATOM      5  C   UNL d   1      65.361  74.021  91.736  0.00  0.00     0.048 C 
ATOM      6  S   UNL d   1      62.899  72.906  91.435  0.00  0.00    -0.078 SA
ENDBRANCH   1   4
BRANCH   3   7
ATOM      7  C   UNL d   1      66.547  71.272  95.023  0.00  0.00     0.071 C 
BRANCH   7   8
ATOM      8  C   UNL d   1      66.884  70.465  96.288  0.00  0.00     0.270 C 
ATOM      9  O   UNL d   1      67.624  71.004  97.173  0.00  0.00    -0.637 OA
ATOM     10  O   UNL d   1      66.389  69.291  96.362  0.00  0.00    -0.637 OA
ENDBRANCH   7   8
ENDBRANCH   3   7
TORSDOF 3
ENDMDL
MODEL 15
REMARK VINA RESULT:      -3.5     13.111     13.856
REMARK  3 active torsions:
REMARK  status: ('A' for Active; 'I' for Inactive)
REMARK    1  A    between atoms: C_2  and  C_4 
REMARK       I    between atoms: C_4  and  N_6 
REMARK    2  A    between atoms: N_6  and  C_7 
REMARK    3  A    between atoms: C_7  and  C_8 
ROOT
ATOM      1  C   UNL d   1      77.000  71.525  88.488  0.00  0.00     0.293 C 
ATOM      2  O   UNL d   1      76.480  72.335  87.709  0.00  0.00    -0.264 OA
ATOM      3  N   UNL d   1      77.908  71.785  89.451  0.00  0.00    -0.158 NA
ENDROOT
BRANCH   1   4
ATOM      4  C   UNL d   1      76.581  70.026  88.373  0.00  0.00     0.091 C 
ATOM      5  C   UNL d   1      76.828  69.068  89.559  0.00  0.00     0.048 C 
ATOM      6  S   UNL d   1      75.826  69.190  87.034  0.00  0.00    -0.078 SA
ENDBRANCH   1   4
BRANCH   3   7
ATOM      7  C   UNL d   1      78.340  73.219  89.596  0.00  0.00     0.071 C 
BRANCH   7   8
ATOM      8  C   UNL d   1      78.720  74.708  89.646  0.00  0.00     0.270 C 
ATOM      9  O   UNL d   1      79.677  75.115  88.912  0.00  0.00    -0.637 OA
ATOM     10  O   UNL d   1      78.037  75.443  90.435  0.00  0.00    -0.637 OA
ENDBRANCH   7   8
ENDBRANCH   3   7
TORSDOF 3
ENDMDL
MODEL 16
REMARK VINA RESULT:      -3.4     12.681     13.156
REMARK  3 active torsions:
REMARK  status: ('A' for Active; 'I' for Inactive)
REMARK    1  A    between atoms: C_2  and  C_4 
REMARK       I    between atoms: C_4  and  N_6 
REMARK    2  A    between atoms: N_6  and  C_7 
REMARK    3  A    between atoms: C_7  and  C_8 
ROOT
ATOM      1  C   UNL d   1      74.556  72.684  90.669  0.00  0.00     0.293 C 
ATOM      2  O   UNL d   1      73.476  72.853  91.253  0.00  0.00    -0.264 OA
ATOM      3  N   UNL d   1      75.383  73.636  90.191  0.00  0.00    -0.158 NA
ENDROOT
BRANCH   1   4
ATOM      4  C   UNL d   1      75.044  71.220  90.442  0.00  0.00     0.091 C 
ATOM      5  C   UNL d   1      74.038  70.139  89.988  0.00  0.00     0.048 C 
ATOM      6  S   UNL d   1      76.649  70.550  90.629  0.00  0.00    -0.078 SA
ENDBRANCH   1   4
BRANCH   3   7
ATOM      7  C   UNL d   1      74.949  75.064  90.389  0.00  0.00     0.071 C 
BRANCH   7   8
ATOM      8  C   UNL d   1      74.395  76.486  90.571  0.00  0.00     0.270 C 
ATOM      9  O   UNL d   1      73.548  76.921  89.726  0.00  0.00    -0.637 OA
ATOM     10  O   UNL d   1      74.832  77.143  91.574  0.00  0.00    -0.637 OA
ENDBRANCH   7   8
ENDBRANCH   3   7
TORSDOF 3
ENDMDL
MODEL 17
REMARK VINA RESULT:      -3.4     21.687     21.832
REMARK  3 active torsions:
REMARK  status: ('A' for Active; 'I' for Inactive)
REMARK    1  A    between atoms: C_2  and  C_4 
REMARK       I    between atoms: C_4  and  N_6 
REMARK    2  A    between atoms: N_6  and  C_7 
REMARK    3  A    between atoms: C_7  and  C_8 
ROOT
ATOM      1  C   UNL d   1      62.016  88.118  92.566  0.00  0.00     0.293 C 
ATOM      2  O   UNL d   1      62.072  87.395  93.571  0.00  0.00    -0.264 OA
ATOM      3  N   UNL d   1      62.082  89.464  92.526  0.00  0.00    -0.158 NA
ENDROOT
BRANCH   1   4
ATOM      4  C   UNL d   1      61.853  87.429  91.177  0.00  0.00     0.091 C 
ATOM      5  C   UNL d   1      62.247  88.192  89.892  0.00  0.00     0.048 C 
ATOM      6  S   UNL d   1      61.258  85.828  90.801  0.00  0.00    -0.078 SA
ENDBRANCH   1   4
BRANCH   3   7
ATOM      7  C   UNL d   1      62.240  90.169  93.845  0.00  0.00     0.071 C 
BRANCH   7   8
ATOM      8  C   UNL d   1      62.383  90.786  95.247  0.00  0.00     0.270 C 
ATOM      9  O   UNL d   1      61.643  90.343  96.183  0.00  0.00    -0.637 OA
ATOM     10  O   UNL d   1      63.248  91.715  95.374  0.00  0.00    -0.637 OA
ENDBRANCH   7   8
ENDBRANCH   3   7
TORSDOF 3
ENDMDL
MODEL 18
REMARK VINA RESULT:      -3.4     14.002     14.603
REMARK  3 active torsions:
REMARK  status: ('A' for Active; 'I' for Inactive)
REMARK    1  A    between atoms: C_2  and  C_4 
REMARK       I    between atoms: C_4  and  N_6 
REMARK    2  A    between atoms: N_6  and  C_7 
REMARK    3  A    between atoms: C_7  and  C_8 
ROOT
ATOM      1  C   UNL d   1      76.496  70.421  88.652  0.00  0.00     0.293 C 
ATOM      2  O   UNL d   1      76.567  70.051  89.832  0.00  0.00    -0.264 OA
ATOM      3  N   UNL d   1      76.328  71.681  88.200  0.00  0.00    -0.158 NA
ENDROOT
BRANCH   1   4
ATOM      4  C   UNL d   1      76.609  69.336  87.536  0.00  0.00     0.091 C 
ATOM      5  C   UNL d   1      75.823  69.509  86.217  0.00  0.00     0.048 C 
ATOM      6  S   UNL d   1      77.539  67.855  87.526  0.00  0.00    -0.078 SA
ENDBRANCH   1   4
BRANCH   3   7
ATOM      7  C   UNL d   1      76.215  72.759  89.244  0.00  0.00     0.071 C 
BRANCH   7   8
ATOM      8  C   UNL d   1      76.046  73.781  90.380  0.00  0.00     0.270 C 
ATOM      9  O   UNL d   1      75.389  74.845  90.147  0.00  0.00    -0.637 OA
ATOM     10  O   UNL d   1      76.588  73.483  91.497  0.00  0.00    -0.637 OA
ENDBRANCH   7   8
ENDBRANCH   3   7
TORSDOF 3
ENDMDL
MODEL 19
REMARK VINA RESULT:      -3.3     19.053     20.014
REMARK  3 active torsions:
REMARK  status: ('A' for Active; 'I' for Inactive)
REMARK    1  A    between atoms: C_2  and  C_4 
REMARK       I    between atoms: C_4  and  N_6 
REMARK    2  A    between atoms: N_6  and  C_7 
REMARK    3  A    between atoms: C_7  and  C_8 
ROOT
ATOM      1  C   UNL d   1      63.798  89.464  92.929  0.00  0.00     0.293 C 
ATOM      2  O   UNL d   1      63.037  90.093  93.677  0.00  0.00    -0.264 OA
ATOM      3  N   UNL d   1      65.143  89.547  92.876  0.00  0.00    -0.158 NA
ENDROOT
BRANCH   1   4
ATOM      4  C   UNL d   1      63.166  88.454  91.923  0.00  0.00     0.091 C 
ATOM      5  C   UNL d   1      62.630  87.097  92.433  0.00  0.00     0.048 C 
ATOM      6  S   UNL d   1      62.945  88.609  90.194  0.00  0.00    -0.078 SA
ENDBRANCH   1   4
BRANCH   3   7
ATOM      7  C   UNL d   1      65.794  90.511  93.831  0.00  0.00     0.071 C 
BRANCH   7   8
ATOM      8  C   UNL d   1      66.534  91.524  94.720  0.00  0.00     0.270 C 
ATOM      9  O   UNL d   1      66.390  91.444  95.982  0.00  0.00    -0.637 OA
ATOM     10  O   UNL d   1      67.252  92.390  94.118  0.00  0.00    -0.637 OA
ENDBRANCH   7   8
ENDBRANCH   3   7
TORSDOF 3
ENDMDL
MODEL 20
REMARK VINA RESULT:      -3.3     17.283     18.464
REMARK  3 active torsions:
REMARK  status: ('A' for Active; 'I' for Inactive)
REMARK    1  A    between atoms: C_2  and  C_4 
REMARK       I    between atoms: C_4  and  N_6 
REMARK    2  A    between atoms: N_6  and  C_7 
REMARK    3  A    between atoms: C_7  and  C_8 
ROOT
ATOM      1  C   UNL d   1      66.038  88.017  92.761  0.00  0.00     0.293 C 
ATOM      2  O   UNL d   1      65.151  87.933  91.900  0.00  0.00    -0.264 OA
ATOM      3  N   UNL d   1      66.248  89.034  93.621  0.00  0.00    -0.158 NA
ENDROOT
BRANCH   1   4
ATOM      4  C   UNL d   1      67.043  86.831  92.894  0.00  0.00     0.091 C 
ATOM      5  C   UNL d   1      67.079  85.732  91.808  0.00  0.00     0.048 C 
ATOM      6  S   UNL d   1      68.215  86.512  94.152  0.00  0.00    -0.078 SA
ENDBRANCH   1   4
BRANCH   3   7
ATOM      7  C   UNL d   1      65.300  90.199  93.526  0.00  0.00     0.071 C 
BRANCH   7   8
ATOM      8  C   UNL d   1      64.284  91.353  93.530  0.00  0.00     0.270 C 
ATOM      9  O   UNL d   1      63.662  91.611  94.611  0.00  0.00    -0.637 OA
ATOM     10  O   UNL d   1      64.132  91.981  92.430  0.00  0.00    -0.637 OA
ENDBRANCH   7   8
ENDBRANCH   3   7
TORSDOF 3
ENDMDL
