MODEL 1
REMARK VINA RESULT:      -1.1      0.000      0.000
REMARK  5 active torsions:
REMARK  status: ('A' for Active; 'I' for Inactive)
REMARK    1  A    between atoms: N_7  and  C_8 
REMARK    2  A    between atoms: C_8  and  C_9 
REMARK    3  A    between atoms: C_9  and  C_10 
REMARK    4  A    between atoms: C_10  and  N_11 
REMARK    5  A    between atoms: C_22  and  C_25 
ROOT
ATOM      1 CL   UNL d   1      67.206  88.740  77.744  0.00  0.00     0.000 Cl
ENDROOT
TORSDOF 5
ENDMDL
MODEL 2
REMARK VINA RESULT:      -1.1     16.649     16.649
REMARK  5 active torsions:
REMARK  status: ('A' for Active; 'I' for Inactive)
REMARK    1  A    between atoms: N_7  and  C_8 
REMARK    2  A    between atoms: C_8  and  C_9 
REMARK    3  A    between atoms: C_9  and  C_10 
REMARK    4  A    between atoms: C_10  and  N_11 
REMARK    5  A    between atoms: C_22  and  C_25 
ROOT
ATOM      1 CL   UNL d   1      79.243  78.208  82.364  0.00  0.00     0.000 Cl
ENDROOT
TORSDOF 5
ENDMDL
MODEL 3
REMARK VINA RESULT:      -1.0      9.785      9.785
REMARK  5 active torsions:
REMARK  status: ('A' for Active; 'I' for Inactive)
REMARK    1  A    between atoms: N_7  and  C_8 
REMARK    2  A    between atoms: C_8  and  C_9 
REMARK    3  A    between atoms: C_9  and  C_10 
REMARK    4  A    between atoms: C_10  and  N_11 
REMARK    5  A    between atoms: C_22  and  C_25 
ROOT
ATOM      1 CL   UNL d   1      75.985  91.657  74.553  0.00  0.00     0.000 Cl
ENDROOT
TORSDOF 5
ENDMDL
MODEL 4
REMARK VINA RESULT:      -1.0     18.804     18.804
REMARK  5 active torsions:
REMARK  status: ('A' for Active; 'I' for Inactive)
REMARK    1  A    between atoms: N_7  and  C_8 
REMARK    2  A    between atoms: C_8  and  C_9 
REMARK    3  A    between atoms: C_9  and  C_10 
REMARK    4  A    between atoms: C_10  and  N_11 
REMARK    5  A    between atoms: C_22  and  C_25 
ROOT
ATOM      1 CL   UNL d   1      84.652  84.606  72.075  0.00  0.00     0.000 Cl
ENDROOT
TORSDOF 5
ENDMDL
MODEL 5
REMARK VINA RESULT:      -0.9      8.994      8.994
REMARK  5 active torsions:
REMARK  status: ('A' for Active; 'I' for Inactive)
REMARK    1  A    between atoms: N_7  and  C_8 
REMARK    2  A    between atoms: C_8  and  C_9 
REMARK    3  A    between atoms: C_9  and  C_10 
REMARK    4  A    between atoms: C_10  and  N_11 
REMARK    5  A    between atoms: C_22  and  C_25 
ROOT
ATOM      1 CL   UNL d   1      74.316  92.448  73.671  0.00  0.00     0.000 Cl
ENDROOT
TORSDOF 5
ENDMDL
MODEL 6
REMARK VINA RESULT:      -0.9     29.531     29.531
REMARK  5 active torsions:
REMARK  status: ('A' for Active; 'I' for Inactive)
REMARK    1  A    between atoms: N_7  and  C_8 
REMARK    2  A    between atoms: C_8  and  C_9 
REMARK    3  A    between atoms: C_9  and  C_10 
REMARK    4  A    between atoms: C_10  and  N_11 
REMARK    5  A    between atoms: C_22  and  C_25 
ROOT
ATOM      1 CL   UNL d   1      56.592  63.060  87.740  0.00  0.00     0.000 Cl
ENDROOT
TORSDOF 5
ENDMDL
MODEL 7
REMARK VINA RESULT:      -0.9     18.448     18.448
REMARK  5 active torsions:
REMARK  status: ('A' for Active; 'I' for Inactive)
REMARK    1  A    between atoms: N_7  and  C_8 
REMARK    2  A    between atoms: C_8  and  C_9 
REMARK    3  A    between atoms: C_9  and  C_10 
REMARK    4  A    between atoms: C_10  and  N_11 
REMARK    5  A    between atoms: C_22  and  C_25 
ROOT
ATOM      1 CL   UNL d   1      80.684  76.569  80.986  0.00  0.00     0.000 Cl
ENDROOT
TORSDOF 5
ENDMDL
MODEL 8
REMARK VINA RESULT:      -0.9     38.735     38.735
REMARK  5 active torsions:
REMARK  status: ('A' for Active; 'I' for Inactive)
REMARK    1  A    between atoms: N_7  and  C_8 
REMARK    2  A    between atoms: C_8  and  C_9 
REMARK    3  A    between atoms: C_9  and  C_10 
REMARK    4  A    between atoms: C_10  and  N_11 
REMARK    5  A    between atoms: C_22  and  C_25 
ROOT
ATOM      1 CL   UNL d   1      73.499  58.604 101.251  0.00  0.00     0.000 Cl
ENDROOT
TORSDOF 5
ENDMDL
MODEL 9
REMARK VINA RESULT:      -0.9     19.389     19.389
REMARK  5 active torsions:
REMARK  status: ('A' for Active; 'I' for Inactive)
REMARK    1  A    between atoms: N_7  and  C_8 
REMARK    2  A    between atoms: C_8  and  C_9 
REMARK    3  A    between atoms: C_9  and  C_10 
REMARK    4  A    between atoms: C_10  and  N_11 
REMARK    5  A    between atoms: C_22  and  C_25 
ROOT
ATOM      1 CL   UNL d   1      57.094  74.249  85.723  0.00  0.00     0.000 Cl
ENDROOT
TORSDOF 5
ENDMDL
MODEL 10
REMARK VINA RESULT:      -0.8     23.262     23.262
REMARK  5 active torsions:
REMARK  status: ('A' for Active; 'I' for Inactive)
REMARK    1  A    between atoms: N_7  and  C_8 
REMARK    2  A    between atoms: C_8  and  C_9 
REMARK    3  A    between atoms: C_9  and  C_10 
REMARK    4  A    between atoms: C_10  and  N_11 
REMARK    5  A    between atoms: C_22  and  C_25 
ROOT
ATOM      1 CL   UNL d   1      79.951  91.738  96.971  0.00  0.00     0.000 Cl
ENDROOT
TORSDOF 5
ENDMDL
MODEL 11
REMARK VINA RESULT:      -0.8     32.044     32.044
REMARK  5 active torsions:
REMARK  status: ('A' for Active; 'I' for Inactive)
REMARK    1  A    between atoms: N_7  and  C_8 
REMARK    2  A    between atoms: C_8  and  C_9 
REMARK    3  A    between atoms: C_9  and  C_10 
REMARK    4  A    between atoms: C_10  and  N_11 
REMARK    5  A    between atoms: C_22  and  C_25 
ROOT
ATOM      1 CL   UNL d   1      68.307  68.389 102.471  0.00  0.00     0.000 Cl
ENDROOT
TORSDOF 5
ENDMDL
MODEL 12
REMARK VINA RESULT:      -0.8     25.212     25.212
REMARK  5 active torsions:
REMARK  status: ('A' for Active; 'I' for Inactive)
REMARK    1  A    between atoms: N_7  and  C_8 
REMARK    2  A    between atoms: C_8  and  C_9 
REMARK    3  A    between atoms: C_9  and  C_10 
REMARK    4  A    between atoms: C_10  and  N_11 
REMARK    5  A    between atoms: C_22  and  C_25 
ROOT
ATOM      1 CL   UNL d   1      78.276  67.757  86.276  0.00  0.00     0.000 Cl
ENDROOT
TORSDOF 5
ENDMDL
MODEL 13
REMARK VINA RESULT:      -0.8     31.724     31.724
REMARK  5 active torsions:
REMARK  status: ('A' for Active; 'I' for Inactive)
REMARK    1  A    between atoms: N_7  and  C_8 
REMARK    2  A    between atoms: C_8  and  C_9 
REMARK    3  A    between atoms: C_9  and  C_10 
REMARK    4  A    between atoms: C_10  and  N_11 
REMARK    5  A    between atoms: C_22  and  C_25 
ROOT
ATOM      1 CL   UNL d   1      70.945  75.550 106.351  0.00  0.00     0.000 Cl
ENDROOT
TORSDOF 5
ENDMDL
MODEL 14
REMARK VINA RESULT:      -0.8     33.223     33.223
REMARK  5 active torsions:
REMARK  status: ('A' for Active; 'I' for Inactive)
REMARK    1  A    between atoms: N_7  and  C_8 
REMARK    2  A    between atoms: C_8  and  C_9 
REMARK    3  A    between atoms: C_9  and  C_10 
REMARK    4  A    between atoms: C_10  and  N_11 
REMARK    5  A    between atoms: C_22  and  C_25 
ROOT
ATOM      1 CL   UNL d   1      52.813  60.488  87.664  0.00  0.00     0.000 Cl
ENDROOT
TORSDOF 5
ENDMDL
MODEL 15
REMARK VINA RESULT:      -0.8     30.024     30.024
REMARK  5 active torsions:
REMARK  status: ('A' for Active; 'I' for Inactive)
REMARK    1  A    between atoms: N_7  and  C_8 
REMARK    2  A    between atoms: C_8  and  C_9 
REMARK    3  A    between atoms: C_9  and  C_10 
REMARK    4  A    between atoms: C_10  and  N_11 
REMARK    5  A    between atoms: C_22  and  C_25 
ROOT
ATOM      1 CL   UNL d   1      54.557  62.875  86.252  0.00  0.00     0.000 Cl
ENDROOT
TORSDOF 5
ENDMDL
MODEL 16
REMARK VINA RESULT:      -0.8     27.540     27.540
REMARK  5 active torsions:
REMARK  status: ('A' for Active; 'I' for Inactive)
REMARK    1  A    between atoms: N_7  and  C_8 
REMARK    2  A    between atoms: C_8  and  C_9 
REMARK    3  A    between atoms: C_9  and  C_10 
REMARK    4  A    between atoms: C_10  and  N_11 
REMARK    5  A    between atoms: C_22  and  C_25 
ROOT
ATOM      1 CL   UNL d   1      52.334  66.145  82.913  0.00  0.00     0.000 Cl
ENDROOT
TORSDOF 5
ENDMDL
MODEL 17
REMARK VINA RESULT:      -0.7     27.915     27.915
REMARK  5 active torsions:
REMARK  status: ('A' for Active; 'I' for Inactive)
REMARK    1  A    between atoms: N_7  and  C_8 
REMARK    2  A    between atoms: C_8  and  C_9 
REMARK    3  A    between atoms: C_9  and  C_10 
REMARK    4  A    between atoms: C_10  and  N_11 
REMARK    5  A    between atoms: C_22  and  C_25 
ROOT
ATOM      1 CL   UNL d   1      80.405  64.169  76.605  0.00  0.00     0.000 Cl
ENDROOT
TORSDOF 5
ENDMDL
MODEL 18
REMARK VINA RESULT:      -0.7     20.307     20.307
REMARK  5 active torsions:
REMARK  status: ('A' for Active; 'I' for Inactive)
REMARK    1  A    between atoms: N_7  and  C_8 
REMARK    2  A    between atoms: C_8  and  C_9 
REMARK    3  A    between atoms: C_9  and  C_10 
REMARK    4  A    between atoms: C_10  and  N_11 
REMARK    5  A    between atoms: C_22  and  C_25 
ROOT
ATOM      1 CL   UNL d   1      57.138  72.158  83.746  0.00  0.00     0.000 Cl
ENDROOT
TORSDOF 5
ENDMDL
MODEL 19
REMARK VINA RESULT:      -0.7     12.608     12.608
REMARK  5 active torsions:
REMARK  status: ('A' for Active; 'I' for Inactive)
REMARK    1  A    between atoms: N_7  and  C_8 
REMARK    2  A    between atoms: C_8  and  C_9 
REMARK    3  A    between atoms: C_9  and  C_10 
REMARK    4  A    between atoms: C_10  and  N_11 
REMARK    5  A    between atoms: C_22  and  C_25 
ROOT
ATOM      1 CL   UNL d   1      61.430  87.835  88.914  0.00  0.00     0.000 Cl
ENDROOT
TORSDOF 5
ENDMDL
MODEL 20
REMARK VINA RESULT:      -0.7     31.626     31.626
REMARK  5 active torsions:
REMARK  status: ('A' for Active; 'I' for Inactive)
REMARK    1  A    between atoms: N_7  and  C_8 
REMARK    2  A    between atoms: C_8  and  C_9 
REMARK    3  A    between atoms: C_9  and  C_10 
REMARK    4  A    between atoms: C_10  and  N_11 
REMARK    5  A    between atoms: C_22  and  C_25 
ROOT
ATOM      1 CL   UNL d   1      69.355  72.531 104.814  0.00  0.00     0.000 Cl
ENDROOT
TORSDOF 5
ENDMDL
