MODEL 1
REMARK VINA RESULT:      -6.6      0.000      0.000
REMARK  7 active torsions:
REMARK  status: ('A' for Active; 'I' for Inactive)
REMARK    1  A    between atoms: N_10  and  C_11 
REMARK    2  A    between atoms: C_11  and  O_12 
REMARK    3  A    between atoms: O_12  and  C_13 
REMARK    4  A    between atoms: C_13  and  C_14 
REMARK    5  A    between atoms: C_14  and  O_15 
REMARK    6  A    between atoms: O_15  and  C_16 
REMARK    7  A    between atoms: C_16  and  C_18 
ROOT
ATOM      1  C   UNL d   1      67.890  86.287  93.338  0.00  0.00     0.293 C 
ATOM      2  C   UNL d   1      68.798  86.508  92.243  0.00  0.00     0.075 C 
ATOM      3  O   UNL d   1      69.782  86.706  91.301  0.00  0.00    -0.139 OA
ENDROOT
BRANCH   1   4
ATOM      4  O   UNL d   1      66.576  85.937  93.063  0.00  0.00    -0.254 OA
BRANCH   4   5
ATOM      5  C   UNL d   1      65.659  86.801  93.522  0.00  0.00     0.084 C 
BRANCH   5   6
ATOM      6  N   UNL d   1      64.619  87.695  94.036  0.00  0.00    -0.120 NA
ATOM      7  C   UNL d   1      64.953  89.113  93.873  0.00  0.00     0.162 A 
ATOM      8  N   UNL d   1      65.968  89.778  94.464  0.00  0.00    -0.200 NA
ATOM      9  C   UNL d   1      63.955  89.827  93.077  0.00  0.00     0.170 A 
ATOM     10  C   UNL d   1      66.013  91.120  94.244  0.00  0.00     0.241 A 
ATOM     11  N   UNL d   1      65.137  91.874  93.524  0.00  0.00    -0.174 NA
ATOM     12  N   UNL d   1      67.103  91.827  94.853  0.00  0.00    -0.059 NA
ATOM     13  C   UNL d   1      64.075  91.308  92.909  0.00  0.00     0.302 A 
ATOM     14  O   UNL d   1      63.243  91.951  92.252  0.00  0.00    -0.263 OA
ATOM     15  N   UNL d   1      62.993  89.007  92.544  0.00  0.00    -0.223 NA
ATOM     16  C   UNL d   1      63.487  87.764  93.126  0.00  0.00     0.167 C 
ENDBRANCH   5   6
ENDBRANCH   4   5
ENDBRANCH   1   4
BRANCH   1  17
ATOM     17  C   UNL d   1      68.481  86.194  94.635  0.00  0.00     0.045 C 
BRANCH  17  18
ATOM     18  O   UNL d   1      68.865  86.205  95.910  0.00  0.00    -0.230 OA
BRANCH  18  19
ATOM     19  C   UNL d   1      68.722  87.365  96.610  0.00  0.00     0.320 C 
ATOM     20  O   UNL d   1      69.063  88.457  96.142  0.00  0.00    -0.257 OA
BRANCH  19  21
ATOM     21  C   UNL d   1      68.098  87.302  97.937  0.00  0.00     0.126 C 
ATOM     22  C   UNL d   1      68.940  87.103  99.094  0.00  0.00    -0.025 C 
ATOM     23  C   UNL d   1      70.438  86.763  98.990  0.00  0.00     0.028 C 
ATOM     24  C   UNL d   1      68.701  87.919 100.389  0.00  0.00     0.028 C 
ATOM     25  N   UNL d   1      66.780  87.861  98.078  0.00  0.00    -0.096 NA
ENDBRANCH  19  21
ENDBRANCH  18  19
ENDBRANCH  17  18
ENDBRANCH   1  17
TORSDOF 7
ENDMDL
MODEL 2
REMARK VINA RESULT:      -6.4      3.233      5.156
REMARK  7 active torsions:
REMARK  status: ('A' for Active; 'I' for Inactive)
REMARK    1  A    between atoms: N_10  and  C_11 
REMARK    2  A    between atoms: C_11  and  O_12 
REMARK    3  A    between atoms: O_12  and  C_13 
REMARK    4  A    between atoms: C_13  and  C_14 
REMARK    5  A    between atoms: C_14  and  O_15 
REMARK    6  A    between atoms: O_15  and  C_16 
REMARK    7  A    between atoms: C_16  and  C_18 
ROOT
ATOM      1  C   UNL d   1      64.206  87.609  91.272  0.00  0.00     0.293 C 
ATOM      2  C   UNL d   1      63.099  86.710  91.472  0.00  0.00     0.075 C 
ATOM      3  O   UNL d   1      62.126  85.786  91.777  0.00  0.00    -0.139 OA
ENDROOT
BRANCH   1   4
ATOM      4  O   UNL d   1      64.005  88.774  90.546  0.00  0.00    -0.254 OA
BRANCH   4   5
ATOM      5  C   UNL d   1      63.719  89.853  91.290  0.00  0.00     0.084 C 
BRANCH   5   6
ATOM      6  N   UNL d   1      63.417  90.995  92.157  0.00  0.00    -0.120 NA
ATOM      7  C   UNL d   1      62.747  90.606  93.401  0.00  0.00     0.162 A 
ATOM      8  N   UNL d   1      61.522  90.052  93.521  0.00  0.00    -0.200 NA
ATOM      9  C   UNL d   1      63.500  91.016  94.586  0.00  0.00     0.170 A 
ATOM     10  C   UNL d   1      61.065  89.878  94.790  0.00  0.00     0.241 A 
ATOM     11  N   UNL d   1      61.685  90.225  95.952  0.00  0.00    -0.174 NA
ATOM     12  N   UNL d   1      59.771  89.271  94.922  0.00  0.00    -0.059 NA
ATOM     13  C   UNL d   1      62.906  90.804  95.942  0.00  0.00     0.302 A 
ATOM     14  O   UNL d   1      63.509  91.148  96.969  0.00  0.00    -0.263 OA
ATOM     15  N   UNL d   1      64.727  91.557  94.293  0.00  0.00    -0.223 NA
ATOM     16  C   UNL d   1      64.610  91.467  92.841  0.00  0.00     0.167 C 
ENDBRANCH   5   6
ENDBRANCH   4   5
ENDBRANCH   1   4
BRANCH   1  17
ATOM     17  C   UNL d   1      65.371  87.354  92.057  0.00  0.00     0.045 C 
BRANCH  17  18
ATOM     18  O   UNL d   1      66.559  87.217  92.643  0.00  0.00    -0.230 OA
BRANCH  18  19
ATOM     19  C   UNL d   1      67.370  86.209  92.215  0.00  0.00     0.320 C 
ATOM     20  O   UNL d   1      66.927  85.228  91.607  0.00  0.00    -0.257 OA
BRANCH  19  21
ATOM     21  C   UNL d   1      68.813  86.334  92.449  0.00  0.00     0.126 C 
ATOM     22  C   UNL d   1      69.389  85.697  93.611  0.00  0.00    -0.025 C 
ATOM     23  C   UNL d   1      68.536  85.055  94.721  0.00  0.00     0.028 C 
ATOM     24  C   UNL d   1      70.731  84.931  93.503  0.00  0.00     0.028 C 
ATOM     25  N   UNL d   1      69.639  86.692  91.326  0.00  0.00    -0.096 NA
ENDBRANCH  19  21
ENDBRANCH  18  19
ENDBRANCH  17  18
ENDBRANCH   1  17
TORSDOF 7
ENDMDL
MODEL 3
REMARK VINA RESULT:      -6.4      4.425      7.512
REMARK  7 active torsions:
REMARK  status: ('A' for Active; 'I' for Inactive)
REMARK    1  A    between atoms: N_10  and  C_11 
REMARK    2  A    between atoms: C_11  and  O_12 
REMARK    3  A    between atoms: O_12  and  C_13 
REMARK    4  A    between atoms: C_13  and  C_14 
REMARK    5  A    between atoms: C_14  and  O_15 
REMARK    6  A    between atoms: O_15  and  C_16 
REMARK    7  A    between atoms: C_16  and  C_18 
ROOT
ATOM      1  C   UNL d   1      64.149  87.192  91.258  0.00  0.00     0.293 C 
ATOM      2  C   UNL d   1      65.488  86.694  91.437  0.00  0.00     0.075 C 
ATOM      3  O   UNL d   1      66.703  86.089  91.664  0.00  0.00    -0.139 OA
ENDROOT
BRANCH   1   4
ATOM      4  O   UNL d   1      63.941  88.282  90.425  0.00  0.00    -0.254 OA
BRANCH   4   5
ATOM      5  C   UNL d   1      63.654  89.426  91.064  0.00  0.00     0.084 C 
BRANCH   5   6
ATOM      6  N   UNL d   1      63.286  90.647  91.783  0.00  0.00    -0.120 NA
ATOM      7  C   UNL d   1      62.847  90.389  93.158  0.00  0.00     0.162 A 
ATOM      8  N   UNL d   1      61.749  89.703  93.542  0.00  0.00    -0.200 NA
ATOM      9  C   UNL d   1      63.668  91.094  94.142  0.00  0.00     0.170 A 
ATOM     10  C   UNL d   1      61.488  89.688  94.877  0.00  0.00     0.241 A 
ATOM     11  N   UNL d   1      62.186  90.310  95.867  0.00  0.00    -0.174 NA
ATOM     12  N   UNL d   1      60.334  88.942  95.290  0.00  0.00    -0.059 NA
ATOM     13  C   UNL d   1      63.289  91.039  95.588  0.00  0.00     0.302 A 
ATOM     14  O   UNL d   1      63.953  91.633  96.450  0.00  0.00    -0.263 OA
ATOM     15  N   UNL d   1      64.746  91.739  93.591  0.00  0.00    -0.223 NA
ATOM     16  C   UNL d   1      64.465  91.387  92.203  0.00  0.00     0.167 C 
ENDBRANCH   5   6
ENDBRANCH   4   5
ENDBRANCH   1   4
BRANCH   1  17
ATOM     17  C   UNL d   1      63.099  86.360  91.753  0.00  0.00     0.045 C 
BRANCH  17  18
ATOM     18  O   UNL d   1      62.110  85.512  92.026  0.00  0.00    -0.230 OA
BRANCH  18  19
ATOM     19  C   UNL d   1      61.507  84.877  90.982  0.00  0.00     0.320 C 
ATOM     20  O   UNL d   1      62.114  84.072  90.268  0.00  0.00    -0.257 OA
BRANCH  19  21
ATOM     21  C   UNL d   1      60.081  85.133  90.745  0.00  0.00     0.126 C 
ATOM     22  C   UNL d   1      59.704  86.061  89.703  0.00  0.00    -0.025 C 
ATOM     23  C   UNL d   1      60.724  86.941  88.957  0.00  0.00     0.028 C 
ATOM     24  C   UNL d   1      58.530  85.734  88.747  0.00  0.00     0.028 C 
ATOM     25  N   UNL d   1      59.141  84.159  91.233  0.00  0.00    -0.096 NA
ENDBRANCH  19  21
ENDBRANCH  18  19
ENDBRANCH  17  18
ENDBRANCH   1  17
TORSDOF 7
ENDMDL
MODEL 4
REMARK VINA RESULT:      -6.3      2.606      4.289
REMARK  7 active torsions:
REMARK  status: ('A' for Active; 'I' for Inactive)
REMARK    1  A    between atoms: N_10  and  C_11 
REMARK    2  A    between atoms: C_11  and  O_12 
REMARK    3  A    between atoms: O_12  and  C_13 
REMARK    4  A    between atoms: C_13  and  C_14 
REMARK    5  A    between atoms: C_14  and  O_15 
REMARK    6  A    between atoms: O_15  and  C_16 
REMARK    7  A    between atoms: C_16  and  C_18 
ROOT
ATOM      1  C   UNL d   1      64.692  87.742  91.321  0.00  0.00     0.293 C 
ATOM      2  C   UNL d   1      64.258  86.382  91.136  0.00  0.00     0.075 C 
ATOM      3  O   UNL d   1      63.921  85.049  91.091  0.00  0.00    -0.139 OA
ENDROOT
BRANCH   1   4
ATOM      4  O   UNL d   1      64.054  88.754  90.618  0.00  0.00    -0.254 OA
BRANCH   4   5
ATOM      5  C   UNL d   1      63.761  89.841  91.347  0.00  0.00     0.084 C 
BRANCH   5   6
ATOM      6  N   UNL d   1      63.425  90.989  92.192  0.00  0.00    -0.120 NA
ATOM      7  C   UNL d   1      62.739  90.605  93.430  0.00  0.00     0.162 A 
ATOM      8  N   UNL d   1      61.521  90.034  93.535  0.00  0.00    -0.200 NA
ATOM      9  C   UNL d   1      63.464  91.043  94.622  0.00  0.00     0.170 A 
ATOM     10  C   UNL d   1      61.043  89.868  94.798  0.00  0.00     0.241 A 
ATOM     11  N   UNL d   1      61.637  90.240  95.966  0.00  0.00    -0.174 NA
ATOM     12  N   UNL d   1      59.758  89.242  94.915  0.00  0.00    -0.059 NA
ATOM     13  C   UNL d   1      62.849  90.839  95.970  0.00  0.00     0.302 A 
ATOM     14  O   UNL d   1      63.427  91.206  97.004  0.00  0.00    -0.263 OA
ATOM     15  N   UNL d   1      64.686  91.600  94.344  0.00  0.00    -0.223 NA
ATOM     16  C   UNL d   1      64.597  91.489  92.892  0.00  0.00     0.167 C 
ENDBRANCH   5   6
ENDBRANCH   4   5
ENDBRANCH   1   4
BRANCH   1  17
ATOM     17  C   UNL d   1      65.582  87.974  92.414  0.00  0.00     0.045 C 
BRANCH  17  18
ATOM     18  O   UNL d   1      66.560  88.143  93.301  0.00  0.00    -0.230 OA
BRANCH  18  19
ATOM     19  C   UNL d   1      66.747  87.172  94.238  0.00  0.00     0.320 C 
ATOM     20  O   UNL d   1      66.176  86.078  94.168  0.00  0.00    -0.257 OA
BRANCH  19  21
ATOM     21  C   UNL d   1      67.694  87.433  95.328  0.00  0.00     0.126 C 
ATOM     22  C   UNL d   1      67.207  88.043  96.544  0.00  0.00    -0.025 C 
ATOM     23  C   UNL d   1      65.782  88.608  96.683  0.00  0.00     0.028 C 
ATOM     24  C   UNL d   1      67.677  87.524  97.927  0.00  0.00     0.028 C 
ATOM     25  N   UNL d   1      68.931  86.699  95.323  0.00  0.00    -0.096 NA
ENDBRANCH  19  21
ENDBRANCH  18  19
ENDBRANCH  17  18
ENDBRANCH   1  17
TORSDOF 7
ENDMDL
MODEL 5
REMARK VINA RESULT:      -6.3     14.064     17.446
REMARK  7 active torsions:
REMARK  status: ('A' for Active; 'I' for Inactive)
REMARK    1  A    between atoms: N_10  and  C_11 
REMARK    2  A    between atoms: C_11  and  O_12 
REMARK    3  A    between atoms: O_12  and  C_13 
REMARK    4  A    between atoms: C_13  and  C_14 
REMARK    5  A    between atoms: C_14  and  O_15 
REMARK    6  A    between atoms: O_15  and  C_16 
REMARK    7  A    between atoms: C_16  and  C_18 
ROOT
ATOM      1  C   UNL d   1      79.639  82.371  98.219  0.00  0.00     0.293 C 
ATOM      2  C   UNL d   1      78.478  83.025  97.672  0.00  0.00     0.075 C 
ATOM      3  O   UNL d   1      77.449  83.658  97.015  0.00  0.00    -0.139 OA
ENDROOT
BRANCH   1   4
ATOM      4  O   UNL d   1      79.518  81.670  99.410  0.00  0.00    -0.254 OA
BRANCH   4   5
ATOM      5  C   UNL d   1      79.398  80.342  99.268  0.00  0.00     0.084 C 
BRANCH   5   6
ATOM      6  N   UNL d   1      79.223  78.902  99.065  0.00  0.00    -0.120 NA
ATOM      7  C   UNL d   1      79.172  78.527  97.649  0.00  0.00     0.162 A 
ATOM      8  N   UNL d   1      78.226  78.878  96.752  0.00  0.00    -0.200 NA
ATOM      9  C   UNL d   1      80.219  77.570  97.292  0.00  0.00     0.170 A 
ATOM     10  C   UNL d   1      78.332  78.317  95.518  0.00  0.00     0.241 A 
ATOM     11  N   UNL d   1      79.263  77.420  95.090  0.00  0.00    -0.174 NA
ATOM     12  N   UNL d   1      77.340  78.704  94.556  0.00  0.00    -0.059 NA
ATOM     13  C   UNL d   1      80.243  76.988  95.915  0.00  0.00     0.302 A 
ATOM     14  O   UNL d   1      81.108  76.166  95.578  0.00  0.00    -0.263 OA
ATOM     15  N   UNL d   1      81.103  77.323  98.313  0.00  0.00    -0.223 NA
ATOM     16  C   UNL d   1      80.463  78.182  99.303  0.00  0.00     0.167 C 
ENDBRANCH   5   6
ENDBRANCH   4   5
ENDBRANCH   1   4
BRANCH   1  17
ATOM     17  C   UNL d   1      80.773  82.279  97.355  0.00  0.00     0.045 C 
BRANCH  17  18
ATOM     18  O   UNL d   1      81.776  82.378  96.486  0.00  0.00    -0.230 OA
BRANCH  18  19
ATOM     19  C   UNL d   1      82.494  81.254  96.208  0.00  0.00     0.320 C 
ATOM     20  O   UNL d   1      82.232  80.165  96.730  0.00  0.00    -0.257 OA
BRANCH  19  21
ATOM     21  C   UNL d   1      83.576  81.349  95.221  0.00  0.00     0.126 C 
ATOM     22  C   UNL d   1      84.938  81.460  95.688  0.00  0.00    -0.025 C 
ATOM     23  C   UNL d   1      85.299  81.678  97.169  0.00  0.00     0.028 C 
ATOM     24  C   UNL d   1      86.071  80.648  95.011  0.00  0.00     0.028 C 
ATOM     25  N   UNL d   1      83.296  80.898  93.884  0.00  0.00    -0.096 NA
ENDBRANCH  19  21
ENDBRANCH  18  19
ENDBRANCH  17  18
ENDBRANCH   1  17
TORSDOF 7
ENDMDL
MODEL 6
REMARK VINA RESULT:      -6.3      4.898      7.568
REMARK  7 active torsions:
REMARK  status: ('A' for Active; 'I' for Inactive)
REMARK    1  A    between atoms: N_10  and  C_11 
REMARK    2  A    between atoms: C_11  and  O_12 
REMARK    3  A    between atoms: O_12  and  C_13 
REMARK    4  A    between atoms: C_13  and  C_14 
REMARK    5  A    between atoms: C_14  and  O_15 
REMARK    6  A    between atoms: O_15  and  C_16 
REMARK    7  A    between atoms: C_16  and  C_18 
ROOT
ATOM      1  C   UNL d   1      61.253  87.183  95.666  0.00  0.00     0.293 C 
ATOM      2  C   UNL d   1      61.415  85.913  96.325  0.00  0.00     0.075 C 
ATOM      3  O   UNL d   1      61.602  84.641  96.814  0.00  0.00    -0.139 OA
ENDROOT
BRANCH   1   4
ATOM      4  O   UNL d   1      61.268  88.344  96.426  0.00  0.00    -0.254 OA
BRANCH   4   5
ATOM      5  C   UNL d   1      62.042  89.323  95.936  0.00  0.00     0.084 C 
BRANCH   5   6
ATOM      6  N   UNL d   1      62.921  90.347  95.366  0.00  0.00    -0.120 NA
ATOM      7  C   UNL d   1      63.587  89.907  94.136  0.00  0.00     0.162 A 
ATOM      8  N   UNL d   1      64.491  88.912  94.017  0.00  0.00    -0.200 NA
ATOM      9  C   UNL d   1      63.279  90.776  93.000  0.00  0.00     0.170 A 
ATOM     10  C   UNL d   1      65.055  88.759  92.789  0.00  0.00     0.241 A 
ATOM     11  N   UNL d   1      64.838  89.511  91.675  0.00  0.00    -0.174 NA
ATOM     12  N   UNL d   1      66.001  87.689  92.653  0.00  0.00    -0.059 NA
ATOM     13  C   UNL d   1      63.967  90.545  91.693  0.00  0.00     0.302 A 
ATOM     14  O   UNL d   1      63.741  91.267  90.710  0.00  0.00    -0.263 OA
ATOM     15  N   UNL d   1      62.339  91.735  93.285  0.00  0.00    -0.223 NA
ATOM     16  C   UNL d   1      62.154  91.380  94.688  0.00  0.00     0.167 C 
ENDBRANCH   5   6
ENDBRANCH   4   5
ENDBRANCH   1   4
BRANCH   1  17
ATOM     17  C   UNL d   1      61.346  87.167  94.241  0.00  0.00     0.045 C 
BRANCH  17  18
ATOM     18  O   UNL d   1      61.421  87.355  92.925  0.00  0.00    -0.230 OA
BRANCH  18  19
ATOM     19  C   UNL d   1      60.428  88.068  92.324  0.00  0.00     0.320 C 
ATOM     20  O   UNL d   1      60.087  89.184  92.730  0.00  0.00    -0.257 OA
BRANCH  19  21
ATOM     21  C   UNL d   1      59.789  87.498  91.132  0.00  0.00     0.126 C 
ATOM     22  C   UNL d   1      60.491  87.553  89.870  0.00  0.00    -0.025 C 
ATOM     23  C   UNL d   1      61.793  88.351  89.673  0.00  0.00     0.028 C 
ATOM     24  C   UNL d   1      60.507  86.327  88.925  0.00  0.00     0.028 C 
ATOM     25  N   UNL d   1      58.728  86.548  91.337  0.00  0.00    -0.096 NA
ENDBRANCH  19  21
ENDBRANCH  18  19
ENDBRANCH  17  18
ENDBRANCH   1  17
TORSDOF 7
ENDMDL
MODEL 7
REMARK VINA RESULT:      -6.2     14.059     16.989
REMARK  7 active torsions:
REMARK  status: ('A' for Active; 'I' for Inactive)
REMARK    1  A    between atoms: N_10  and  C_11 
REMARK    2  A    between atoms: C_11  and  O_12 
REMARK    3  A    between atoms: O_12  and  C_13 
REMARK    4  A    between atoms: C_13  and  C_14 
REMARK    5  A    between atoms: C_14  and  O_15 
REMARK    6  A    between atoms: O_15  and  C_16 
REMARK    7  A    between atoms: C_16  and  C_18 
ROOT
ATOM      1  C   UNL d   1      80.599  76.852  97.363  0.00  0.00     0.293 C 
ATOM      2  C   UNL d   1      80.769  75.688  98.194  0.00  0.00     0.075 C 
ATOM      3  O   UNL d   1      81.075  74.631  99.020  0.00  0.00    -0.139 OA
ENDROOT
BRANCH   1   4
ATOM      4  O   UNL d   1      79.320  77.217  96.969  0.00  0.00    -0.254 OA
BRANCH   4   5
ATOM      5  C   UNL d   1      78.752  78.168  97.726  0.00  0.00     0.084 C 
BRANCH   5   6
ATOM      6  N   UNL d   1      78.179  79.248  98.532  0.00  0.00    -0.120 NA
ATOM      7  C   UNL d   1      78.781  80.554  98.247  0.00  0.00     0.162 A 
ATOM      8  N   UNL d   1      80.060  80.921  98.470  0.00  0.00    -0.200 NA
ATOM      9  C   UNL d   1      77.790  81.534  97.801  0.00  0.00     0.170 A 
ATOM     10  C   UNL d   1      80.362  82.225  98.226  0.00  0.00     0.241 A 
ATOM     11  N   UNL d   1      79.516  83.209  97.812  0.00  0.00    -0.174 NA
ATOM     12  N   UNL d   1      81.726  82.613  98.442  0.00  0.00    -0.059 NA
ATOM     13  C   UNL d   1      78.210  82.952  97.580  0.00  0.00     0.302 A 
ATOM     14  O   UNL d   1      77.398  83.813  97.213  0.00  0.00    -0.263 OA
ATOM     15  N   UNL d   1      76.539  81.000  97.618  0.00  0.00    -0.223 NA
ATOM     16  C   UNL d   1      76.871  79.641  98.032  0.00  0.00     0.167 C 
ENDBRANCH   5   6
ENDBRANCH   4   5
ENDBRANCH   1   4
BRANCH   1  17
ATOM     17  C   UNL d   1      81.744  77.693  97.217  0.00  0.00     0.045 C 
BRANCH  17  18
ATOM     18  O   UNL d   1      82.702  78.574  96.940  0.00  0.00    -0.230 OA
BRANCH  18  19
ATOM     19  C   UNL d   1      82.555  79.350  95.830  0.00  0.00     0.320 C 
ATOM     20  O   UNL d   1      81.490  79.920  95.568  0.00  0.00    -0.257 OA
BRANCH  19  21
ATOM     21  C   UNL d   1      83.720  79.542  94.958  0.00  0.00     0.126 C 
ATOM     22  C   UNL d   1      84.663  80.589  95.275  0.00  0.00    -0.025 C 
ATOM     23  C   UNL d   1      84.409  81.639  96.372  0.00  0.00     0.028 C 
ATOM     24  C   UNL d   1      86.187  80.332  95.172  0.00  0.00     0.028 C 
ATOM     25  N   UNL d   1      84.104  78.444  94.112  0.00  0.00    -0.096 NA
ENDBRANCH  19  21
ENDBRANCH  18  19
ENDBRANCH  17  18
ENDBRANCH   1  17
TORSDOF 7
ENDMDL
MODEL 8
REMARK VINA RESULT:      -6.2      5.033      7.877
REMARK  7 active torsions:
REMARK  status: ('A' for Active; 'I' for Inactive)
REMARK    1  A    between atoms: N_10  and  C_11 
REMARK    2  A    between atoms: C_11  and  O_12 
REMARK    3  A    between atoms: O_12  and  C_13 
REMARK    4  A    between atoms: C_13  and  C_14 
REMARK    5  A    between atoms: C_14  and  O_15 
REMARK    6  A    between atoms: O_15  and  C_16 
REMARK    7  A    between atoms: C_16  and  C_18 
ROOT
ATOM      1  C   UNL d   1      60.463  88.999  94.724  0.00  0.00     0.293 C 
ATOM      2  C   UNL d   1      61.116  88.125  95.663  0.00  0.00     0.075 C 
ATOM      3  O   UNL d   1      61.863  87.386  96.551  0.00  0.00    -0.139 OA
ENDROOT
BRANCH   1   4
ATOM      4  O   UNL d   1      59.086  88.918  94.574  0.00  0.00    -0.254 OA
BRANCH   4   5
ATOM      5  C   UNL d   1      58.659  88.953  93.303  0.00  0.00     0.084 C 
BRANCH   5   6
ATOM      6  N   UNL d   1      58.238  88.945  91.901  0.00  0.00    -0.120 NA
ATOM      7  C   UNL d   1      59.060  88.067  91.062  0.00  0.00     0.162 A 
ATOM      8  N   UNL d   1      60.372  88.215  90.780  0.00  0.00    -0.200 NA
ATOM      9  C   UNL d   1      58.267  87.030  90.403  0.00  0.00     0.170 A 
ATOM     10  C   UNL d   1      60.895  87.332  89.887  0.00  0.00     0.241 A 
ATOM     11  N   UNL d   1      60.244  86.338  89.222  0.00  0.00    -0.174 NA
ATOM     12  N   UNL d   1      62.294  87.473  89.601  0.00  0.00    -0.059 NA
ATOM     13  C   UNL d   1      58.925  86.119  89.417  0.00  0.00     0.302 A 
ATOM     14  O   UNL d   1      58.284  85.235  88.830  0.00  0.00    -0.263 OA
ATOM     15  N   UNL d   1      56.954  87.012  90.802  0.00  0.00    -0.223 NA
ATOM     16  C   UNL d   1      57.037  88.146  91.716  0.00  0.00     0.167 C 
ENDBRANCH   5   6
ENDBRANCH   4   5
ENDBRANCH   1   4
BRANCH   1  17
ATOM     17  C   UNL d   1      61.256  90.066  94.202  0.00  0.00     0.045 C 
BRANCH  17  18
ATOM     18  O   UNL d   1      61.825  91.170  93.722  0.00  0.00    -0.230 OA
BRANCH  18  19
ATOM     19  C   UNL d   1      63.175  91.299  93.848  0.00  0.00     0.320 C 
ATOM     20  O   UNL d   1      63.699  91.695  94.895  0.00  0.00    -0.257 OA
BRANCH  19  21
ATOM     21  C   UNL d   1      64.018  90.906  92.713  0.00  0.00     0.126 C 
ATOM     22  C   UNL d   1      64.780  89.682  92.801  0.00  0.00    -0.025 C 
ATOM     23  C   UNL d   1      64.904  88.866  94.101  0.00  0.00     0.028 C 
ATOM     24  C   UNL d   1      64.857  88.714  91.594  0.00  0.00     0.028 C 
ATOM     25  N   UNL d   1      63.724  91.493  91.433  0.00  0.00    -0.096 NA
ENDBRANCH  19  21
ENDBRANCH  18  19
ENDBRANCH  17  18
ENDBRANCH   1  17
TORSDOF 7
ENDMDL
MODEL 9
REMARK VINA RESULT:      -6.0     13.428     16.522
REMARK  7 active torsions:
REMARK  status: ('A' for Active; 'I' for Inactive)
REMARK    1  A    between atoms: N_10  and  C_11 
REMARK    2  A    between atoms: C_11  and  O_12 
REMARK    3  A    between atoms: O_12  and  C_13 
REMARK    4  A    between atoms: C_13  and  C_14 
REMARK    5  A    between atoms: C_14  and  O_15 
REMARK    6  A    between atoms: O_15  and  C_16 
REMARK    7  A    between atoms: C_16  and  C_18 
ROOT
ATOM      1  C   UNL d   1      79.075  77.963  93.613  0.00  0.00     0.293 C 
ATOM      2  C   UNL d   1      78.795  76.941  92.638  0.00  0.00     0.075 C 
ATOM      3  O   UNL d   1      78.413  76.057  91.655  0.00  0.00    -0.139 OA
ENDROOT
BRANCH   1   4
ATOM      4  O   UNL d   1      80.292  77.942  94.279  0.00  0.00    -0.254 OA
BRANCH   4   5
ATOM      5  C   UNL d   1      81.011  79.068  94.163  0.00  0.00     0.084 C 
BRANCH   5   6
ATOM      6  N   UNL d   1      81.848  80.261  94.018  0.00  0.00    -0.120 NA
ATOM      7  C   UNL d   1      82.001  81.007  95.272  0.00  0.00     0.162 A 
ATOM      8  N   UNL d   1      81.028  81.641  95.960  0.00  0.00    -0.200 NA
ATOM      9  C   UNL d   1      83.402  81.135  95.671  0.00  0.00     0.170 A 
ATOM     10  C   UNL d   1      81.430  82.360  97.041  0.00  0.00     0.241 A 
ATOM     11  N   UNL d   1      82.702  82.541  97.493  0.00  0.00    -0.174 NA
ATOM     12  N   UNL d   1      80.396  83.019  97.787  0.00  0.00    -0.059 NA
ATOM     13  C   UNL d   1      83.752  81.967  96.864  0.00  0.00     0.302 A 
ATOM     14  O   UNL d   1      84.929  82.108  97.227  0.00  0.00    -0.263 OA
ATOM     15  N   UNL d   1      84.265  80.427  94.871  0.00  0.00    -0.223 NA
ATOM     16  C   UNL d   1      83.258  79.911  93.951  0.00  0.00     0.167 C 
ENDBRANCH   5   6
ENDBRANCH   4   5
ENDBRANCH   1   4
BRANCH   1  17
ATOM     17  C   UNL d   1      78.177  79.073  93.635  0.00  0.00     0.045 C 
BRANCH  17  18
ATOM     18  O   UNL d   1      77.450  80.180  93.500  0.00  0.00    -0.230 OA
BRANCH  18  19
ATOM     19  C   UNL d   1      76.719  80.328  92.360  0.00  0.00     0.320 C 
ATOM     20  O   UNL d   1      76.273  79.357  91.739  0.00  0.00    -0.257 OA
BRANCH  19  21
ATOM     21  C   UNL d   1      76.421  81.690  91.899  0.00  0.00     0.126 C 
ATOM     22  C   UNL d   1      75.438  82.468  92.615  0.00  0.00    -0.025 C 
ATOM     23  C   UNL d   1      74.545  81.876  93.720  0.00  0.00     0.028 C 
ATOM     24  C   UNL d   1      75.694  83.964  92.927  0.00  0.00     0.028 C 
ATOM     25  N   UNL d   1      77.397  82.335  91.062  0.00  0.00    -0.096 NA
ENDBRANCH  19  21
ENDBRANCH  18  19
ENDBRANCH  17  18
ENDBRANCH   1  17
TORSDOF 7
ENDMDL
MODEL 10
REMARK VINA RESULT:      -5.9     13.382     16.847
REMARK  7 active torsions:
REMARK  status: ('A' for Active; 'I' for Inactive)
REMARK    1  A    between atoms: N_10  and  C_11 
REMARK    2  A    between atoms: C_11  and  O_12 
REMARK    3  A    between atoms: O_12  and  C_13 
REMARK    4  A    between atoms: C_13  and  C_14 
REMARK    5  A    between atoms: C_14  and  O_15 
REMARK    6  A    between atoms: O_15  and  C_16 
REMARK    7  A    between atoms: C_16  and  C_18 
ROOT
ATOM      1  C   UNL d   1      79.623  82.153  97.996  0.00  0.00     0.293 C 
ATOM      2  C   UNL d   1      79.536  80.911  98.719  0.00  0.00     0.075 C 
ATOM      3  O   UNL d   1      79.316  79.702  99.337  0.00  0.00    -0.139 OA
ENDROOT
BRANCH   1   4
ATOM      4  O   UNL d   1      80.849  82.796  97.907  0.00  0.00    -0.254 OA
BRANCH   4   5
ATOM      5  C   UNL d   1      81.765  82.151  97.170  0.00  0.00     0.084 C 
BRANCH   5   6
ATOM      6  N   UNL d   1      82.809  81.455  96.415  0.00  0.00    -0.120 NA
ATOM      7  C   UNL d   1      82.467  80.060  96.121  0.00  0.00     0.162 A 
ATOM      8  N   UNL d   1      82.298  79.063  97.015  0.00  0.00    -0.200 NA
ATOM      9  C   UNL d   1      82.458  79.784  94.684  0.00  0.00     0.170 A 
ATOM     10  C   UNL d   1      82.090  77.822  96.497  0.00  0.00     0.241 A 
ATOM     11  N   UNL d   1      82.065  77.464  95.183  0.00  0.00    -0.174 NA
ATOM     12  N   UNL d   1      81.889  76.763  97.444  0.00  0.00    -0.059 NA
ATOM     13  C   UNL d   1      82.244  78.383  94.208  0.00  0.00     0.302 A 
ATOM     14  O   UNL d   1      82.240  78.108  92.999  0.00  0.00    -0.263 OA
ATOM     15  N   UNL d   1      82.640  80.904  93.913  0.00  0.00    -0.223 NA
ATOM     16  C   UNL d   1      82.797  81.847  95.015  0.00  0.00     0.167 C 
ENDBRANCH   5   6
ENDBRANCH   4   5
ENDBRANCH   1   4
BRANCH   1  17
ATOM     17  C   UNL d   1      78.485  82.501  97.206  0.00  0.00     0.045 C 
BRANCH  17  18
ATOM     18  O   UNL d   1      77.478  83.018  96.505  0.00  0.00    -0.230 OA
BRANCH  18  19
ATOM     19  C   UNL d   1      76.785  82.189  95.676  0.00  0.00     0.320 C 
ATOM     20  O   UNL d   1      76.100  81.256  96.108  0.00  0.00    -0.257 OA
BRANCH  19  21
ATOM     21  C   UNL d   1      76.826  82.458  94.233  0.00  0.00     0.126 C 
ATOM     22  C   UNL d   1      77.523  81.533  93.371  0.00  0.00    -0.025 C 
ATOM     23  C   UNL d   1      78.389  80.379  93.909  0.00  0.00     0.028 C 
ATOM     24  C   UNL d   1      76.908  81.106  92.015  0.00  0.00     0.028 C 
ATOM     25  N   UNL d   1      75.836  83.354  93.697  0.00  0.00    -0.096 NA
ENDBRANCH  19  21
ENDBRANCH  18  19
ENDBRANCH  17  18
ENDBRANCH   1  17
TORSDOF 7
ENDMDL
MODEL 11
REMARK VINA RESULT:      -5.9     17.110     19.796
REMARK  7 active torsions:
REMARK  status: ('A' for Active; 'I' for Inactive)
REMARK    1  A    between atoms: N_10  and  C_11 
REMARK    2  A    between atoms: C_11  and  O_12 
REMARK    3  A    between atoms: O_12  and  C_13 
REMARK    4  A    between atoms: C_13  and  C_14 
REMARK    5  A    between atoms: C_14  and  O_15 
REMARK    6  A    between atoms: O_15  and  C_16 
REMARK    7  A    between atoms: C_16  and  C_18 
ROOT
ATOM      1  C   UNL d   1      74.900  73.241  90.585  0.00  0.00     0.293 C 
ATOM      2  C   UNL d   1      74.600  71.844  90.768  0.00  0.00     0.075 C 
ATOM      3  O   UNL d   1      74.167  70.555  90.978  0.00  0.00    -0.139 OA
ENDROOT
BRANCH   1   4
ATOM      4  O   UNL d   1      76.051  73.598  89.899  0.00  0.00    -0.254 OA
BRANCH   4   5
ATOM      5  C   UNL d   1      76.555  72.635  89.114  0.00  0.00     0.084 C 
BRANCH   5   6
ATOM      6  N   UNL d   1      77.060  71.598  88.211  0.00  0.00    -0.120 NA
ATOM      7  C   UNL d   1      77.844  70.570  88.903  0.00  0.00     0.162 A 
ATOM      8  N   UNL d   1      79.022  70.743  89.539  0.00  0.00    -0.200 NA
ATOM      9  C   UNL d   1      77.282  69.232  88.722  0.00  0.00     0.170 A 
ATOM     10  C   UNL d   1      79.617  69.616  90.015  0.00  0.00     0.241 A 
ATOM     11  N   UNL d   1      79.178  68.332  89.898  0.00  0.00    -0.174 NA
ATOM     12  N   UNL d   1      80.859  69.798  90.709  0.00  0.00    -0.059 NA
ATOM     13  C   UNL d   1      78.020  68.048  89.262  0.00  0.00     0.302 A 
ATOM     14  O   UNL d   1      77.582  66.897  89.119  0.00  0.00    -0.263 OA
ATOM     15  N   UNL d   1      76.080  69.230  88.060  0.00  0.00    -0.223 NA
ATOM     16  C   UNL d   1      76.007  70.669  87.834  0.00  0.00     0.167 C 
ENDBRANCH   5   6
ENDBRANCH   4   5
ENDBRANCH   1   4
BRANCH   1  17
ATOM     17  C   UNL d   1      73.851  74.156  90.905  0.00  0.00     0.045 C 
BRANCH  17  18
ATOM     18  O   UNL d   1      72.866  75.047  91.003  0.00  0.00    -0.230 OA
BRANCH  18  19
ATOM     19  C   UNL d   1      73.177  76.363  90.837  0.00  0.00     0.320 C 
ATOM     20  O   UNL d   1      73.717  76.782  89.808  0.00  0.00    -0.257 OA
BRANCH  19  21
ATOM     21  C   UNL d   1      72.809  77.302  91.904  0.00  0.00     0.126 C 
ATOM     22  C   UNL d   1      71.457  77.810  91.948  0.00  0.00    -0.025 C 
ATOM     23  C   UNL d   1      70.435  77.567  90.823  0.00  0.00     0.028 C 
ATOM     24  C   UNL d   1      70.701  77.916  93.296  0.00  0.00     0.028 C 
ATOM     25  N   UNL d   1      73.642  77.335  93.076  0.00  0.00    -0.096 NA
ENDBRANCH  19  21
ENDBRANCH  18  19
ENDBRANCH  17  18
ENDBRANCH   1  17
TORSDOF 7
ENDMDL
MODEL 12
REMARK VINA RESULT:      -5.9     20.172     22.803
REMARK  7 active torsions:
REMARK  status: ('A' for Active; 'I' for Inactive)
REMARK    1  A    between atoms: N_10  and  C_11 
REMARK    2  A    between atoms: C_11  and  O_12 
REMARK    3  A    between atoms: O_12  and  C_13 
REMARK    4  A    between atoms: C_13  and  C_14 
REMARK    5  A    between atoms: C_14  and  O_15 
REMARK    6  A    between atoms: O_15  and  C_16 
REMARK    7  A    between atoms: C_16  and  C_18 
ROOT
ATOM      1  C   UNL d   1      75.684  71.037  89.794  0.00  0.00     0.293 C 
ATOM      2  C   UNL d   1      74.480  71.521  90.420  0.00  0.00     0.075 C 
ATOM      3  O   UNL d   1      73.414  72.107  91.061  0.00  0.00    -0.139 OA
ENDROOT
BRANCH   1   4
ATOM      4  O   UNL d   1      75.592  70.020  88.855  0.00  0.00    -0.254 OA
BRANCH   4   5
ATOM      5  C   UNL d   1      76.760  69.437  88.548  0.00  0.00     0.084 C 
BRANCH   5   6
ATOM      6  N   UNL d   1      78.045  68.788  88.276  0.00  0.00    -0.120 NA
ATOM      7  C   UNL d   1      78.284  67.617  89.126  0.00  0.00     0.162 A 
ATOM      8  N   UNL d   1      78.440  67.608  90.466  0.00  0.00    -0.200 NA
ATOM      9  C   UNL d   1      78.489  66.399  88.342  0.00  0.00     0.170 A 
ATOM     10  C   UNL d   1      78.761  66.410  91.025  0.00  0.00     0.241 A 
ATOM     11  N   UNL d   1      78.974  65.226  90.386  0.00  0.00    -0.174 NA
ATOM     12  N   UNL d   1      78.907  66.393  92.452  0.00  0.00    -0.059 NA
ATOM     13  C   UNL d   1      78.863  65.131  89.043  0.00  0.00     0.302 A 
ATOM     14  O   UNL d   1      79.056  64.081  88.413  0.00  0.00    -0.263 OA
ATOM     15  N   UNL d   1      78.289  66.575  86.996  0.00  0.00    -0.223 NA
ATOM     16  C   UNL d   1      77.990  68.002  87.054  0.00  0.00     0.167 C 
ENDBRANCH   5   6
ENDBRANCH   4   5
ENDBRANCH   1   4
BRANCH   1  17
ATOM     17  C   UNL d   1      76.859  71.822  90.002  0.00  0.00     0.045 C 
BRANCH  17  18
ATOM     18  O   UNL d   1      77.897  72.655  90.029  0.00  0.00    -0.230 OA
BRANCH  18  19
ATOM     19  C   UNL d   1      77.644  73.987  90.167  0.00  0.00     0.320 C 
ATOM     20  O   UNL d   1      76.498  74.420  90.332  0.00  0.00    -0.257 OA
BRANCH  19  21
ATOM     21  C   UNL d   1      78.783  74.913  90.166  0.00  0.00     0.126 C 
ATOM     22  C   UNL d   1      79.438  75.213  91.418  0.00  0.00    -0.025 C 
ATOM     23  C   UNL d   1      78.883  74.762  92.781  0.00  0.00     0.028 C 
ATOM     24  C   UNL d   1      80.984  75.273  91.501  0.00  0.00     0.028 C 
ATOM     25  N   UNL d   1      79.459  75.131  88.915  0.00  0.00    -0.096 NA
ENDBRANCH  19  21
ENDBRANCH  18  19
ENDBRANCH  17  18
ENDBRANCH   1  17
TORSDOF 7
ENDMDL
MODEL 13
REMARK VINA RESULT:      -5.8     12.187     15.319
REMARK  7 active torsions:
REMARK  status: ('A' for Active; 'I' for Inactive)
REMARK    1  A    between atoms: N_10  and  C_11 
REMARK    2  A    between atoms: C_11  and  O_12 
REMARK    3  A    between atoms: O_12  and  C_13 
REMARK    4  A    between atoms: C_13  and  C_14 
REMARK    5  A    between atoms: C_14  and  O_15 
REMARK    6  A    between atoms: O_15  and  C_16 
REMARK    7  A    between atoms: C_16  and  C_18 
ROOT
ATOM      1  C   UNL d   1      78.360  77.500  93.398  0.00  0.00     0.293 C 
ATOM      2  C   UNL d   1      79.325  76.567  92.877  0.00  0.00     0.075 C 
ATOM      3  O   UNL d   1      80.189  75.709  92.237  0.00  0.00    -0.139 OA
ENDROOT
BRANCH   1   4
ATOM      4  O   UNL d   1      78.521  77.985  94.688  0.00  0.00    -0.254 OA
BRANCH   4   5
ATOM      5  C   UNL d   1      79.282  79.084  94.781  0.00  0.00     0.084 C 
BRANCH   5   6
ATOM      6  N   UNL d   1      80.099  80.299  94.821  0.00  0.00    -0.120 NA
ATOM      7  C   UNL d   1      79.737  81.195  95.923  0.00  0.00     0.162 A 
ATOM      8  N   UNL d   1      78.566  81.848  96.084  0.00  0.00    -0.200 NA
ATOM      9  C   UNL d   1      80.863  81.452  96.820  0.00  0.00     0.170 A 
ATOM     10  C   UNL d   1      78.501  82.712  97.132  0.00  0.00     0.241 A 
ATOM     11  N   UNL d   1      79.488  83.019  98.018  0.00  0.00    -0.174 NA
ATOM     12  N   UNL d   1      77.251  83.391  97.318  0.00  0.00    -0.059 NA
ATOM     13  C   UNL d   1      80.705  82.437  97.933  0.00  0.00     0.302 A 
ATOM     14  O   UNL d   1      81.639  82.690  98.708  0.00  0.00    -0.263 OA
ATOM     15  N   UNL d   1      81.977  80.707  96.524  0.00  0.00    -0.223 NA
ATOM     16  C   UNL d   1      81.423  80.027  95.358  0.00  0.00     0.167 C 
ENDBRANCH   5   6
ENDBRANCH   4   5
ENDBRANCH   1   4
BRANCH   1  17
ATOM     17  C   UNL d   1      77.447  78.055  92.450  0.00  0.00     0.045 C 
BRANCH  17  18
ATOM     18  O   UNL d   1      76.696  78.748  91.596  0.00  0.00    -0.230 OA
BRANCH  18  19
ATOM     19  C   UNL d   1      75.785  79.620  92.109  0.00  0.00     0.320 C 
ATOM     20  O   UNL d   1      74.611  79.641  91.724  0.00  0.00    -0.257 OA
BRANCH  19  21
ATOM     21  C   UNL d   1      76.217  80.521  93.185  0.00  0.00     0.126 C 
ATOM     22  C   UNL d   1      76.824  81.784  92.835  0.00  0.00    -0.025 C 
ATOM     23  C   UNL d   1      77.217  82.151  91.392  0.00  0.00     0.028 C 
ATOM     24  C   UNL d   1      76.440  83.079  93.594  0.00  0.00     0.028 C 
ATOM     25  N   UNL d   1      75.641  80.323  94.488  0.00  0.00    -0.096 NA
ENDBRANCH  19  21
ENDBRANCH  18  19
ENDBRANCH  17  18
ENDBRANCH   1  17
TORSDOF 7
ENDMDL
MODEL 14
REMARK VINA RESULT:      -5.8      3.031      4.273
REMARK  7 active torsions:
REMARK  status: ('A' for Active; 'I' for Inactive)
REMARK    1  A    between atoms: N_10  and  C_11 
REMARK    2  A    between atoms: C_11  and  O_12 
REMARK    3  A    between atoms: O_12  and  C_13 
REMARK    4  A    between atoms: C_13  and  C_14 
REMARK    5  A    between atoms: C_14  and  O_15 
REMARK    6  A    between atoms: O_15  and  C_16 
REMARK    7  A    between atoms: C_16  and  C_18 
ROOT
ATOM      1  C   UNL d   1      64.259  86.122  91.654  0.00  0.00     0.293 C 
ATOM      2  C   UNL d   1      64.672  84.744  91.607  0.00  0.00     0.075 C 
ATOM      3  O   UNL d   1      65.088  83.437  91.716  0.00  0.00    -0.139 OA
ENDROOT
BRANCH   1   4
ATOM      4  O   UNL d   1      63.558  86.653  90.580  0.00  0.00    -0.254 OA
BRANCH   4   5
ATOM      5  C   UNL d   1      63.184  87.931  90.734  0.00  0.00     0.084 C 
BRANCH   5   6
ATOM      6  N   UNL d   1      62.806  89.328  90.959  0.00  0.00    -0.120 NA
ATOM      7  C   UNL d   1      62.357  89.583  92.332  0.00  0.00     0.162 A 
ATOM      8  N   UNL d   1      61.260  89.076  92.932  0.00  0.00    -0.200 NA
ATOM      9  C   UNL d   1      63.168  90.603  92.998  0.00  0.00     0.170 A 
ATOM     10  C   UNL d   1      60.988  89.544  94.179  0.00  0.00     0.241 A 
ATOM     11  N   UNL d   1      61.676  90.487  94.881  0.00  0.00    -0.174 NA
ATOM     12  N   UNL d   1      59.834  88.991  94.828  0.00  0.00    -0.059 NA
ATOM     13  C   UNL d   1      62.778  91.073  94.363  0.00  0.00     0.302 A 
ATOM     14  O   UNL d   1      63.433  91.943  94.955  0.00  0.00    -0.263 OA
ATOM     15  N   UNL d   1      64.248  91.011  92.256  0.00  0.00    -0.223 NA
ATOM     16  C   UNL d   1      63.978  90.178  91.090  0.00  0.00     0.167 C 
ENDBRANCH   5   6
ENDBRANCH   4   5
ENDBRANCH   1   4
BRANCH   1  17
ATOM     17  C   UNL d   1      64.379  86.771  92.921  0.00  0.00     0.045 C 
BRANCH  17  18
ATOM     18  O   UNL d   1      64.565  87.534  93.996  0.00  0.00    -0.230 OA
BRANCH  18  19
ATOM     19  C   UNL d   1      65.777  87.482  94.615  0.00  0.00     0.320 C 
ATOM     20  O   UNL d   1      66.782  87.043  94.047  0.00  0.00    -0.257 OA
BRANCH  19  21
ATOM     21  C   UNL d   1      65.881  88.011  95.980  0.00  0.00     0.126 C 
ATOM     22  C   UNL d   1      66.140  89.421  96.163  0.00  0.00    -0.025 C 
ATOM     23  C   UNL d   1      66.502  90.362  95.000  0.00  0.00     0.028 C 
ATOM     24  C   UNL d   1      65.371  90.227  97.240  0.00  0.00     0.028 C 
ATOM     25  N   UNL d   1      65.305  87.229  97.042  0.00  0.00    -0.096 NA
ENDBRANCH  19  21
ENDBRANCH  18  19
ENDBRANCH  17  18
ENDBRANCH   1  17
TORSDOF 7
ENDMDL
MODEL 15
REMARK VINA RESULT:      -5.6     16.950     20.231
REMARK  7 active torsions:
REMARK  status: ('A' for Active; 'I' for Inactive)
REMARK    1  A    between atoms: N_10  and  C_11 
REMARK    2  A    between atoms: C_11  and  O_12 
REMARK    3  A    between atoms: O_12  and  C_13 
REMARK    4  A    between atoms: C_13  and  C_14 
REMARK    5  A    between atoms: C_14  and  O_15 
REMARK    6  A    between atoms: O_15  and  C_16 
REMARK    7  A    between atoms: C_16  and  C_18 
ROOT
ATOM      1  C   UNL d   1      79.198  75.201  99.083  0.00  0.00     0.293 C 
ATOM      2  C   UNL d   1      80.104  75.011 100.186  0.00  0.00     0.075 C 
ATOM      3  O   UNL d   1      81.042  74.959 101.190  0.00  0.00    -0.139 OA
ENDROOT
BRANCH   1   4
ATOM      4  O   UNL d   1      77.985  74.527  99.084  0.00  0.00    -0.254 OA
BRANCH   4   5
ATOM      5  C   UNL d   1      77.993  73.363  99.750  0.00  0.00     0.084 C 
BRANCH   5   6
ATOM      6  N   UNL d   1      78.064  72.083 100.459  0.00  0.00    -0.120 NA
ATOM      7  C   UNL d   1      77.001  71.153 100.066  0.00  0.00     0.162 A 
ATOM      8  N   UNL d   1      75.674  71.311 100.262  0.00  0.00    -0.200 NA
ATOM      9  C   UNL d   1      77.533  69.898  99.536  0.00  0.00     0.170 A 
ATOM     10  C   UNL d   1      74.887  70.260  99.908  0.00  0.00     0.241 A 
ATOM     11  N   UNL d   1      75.283  69.056  99.410  0.00  0.00    -0.174 NA
ATOM     12  N   UNL d   1      73.475  70.432 100.095  0.00  0.00    -0.059 NA
ATOM     13  C   UNL d   1      76.590  68.788  99.195  0.00  0.00     0.302 A 
ATOM     14  O   UNL d   1      77.004  67.706  98.754  0.00  0.00    -0.263 OA
ATOM     15  N   UNL d   1      78.898  69.901  99.394  0.00  0.00    -0.223 NA
ATOM     16  C   UNL d   1      79.121  71.242  99.923  0.00  0.00     0.167 C 
ENDBRANCH   5   6
ENDBRANCH   4   5
ENDBRANCH   1   4
BRANCH   1  17
ATOM     17  C   UNL d   1      79.509  76.272  98.191  0.00  0.00     0.045 C 
BRANCH  17  18
ATOM     18  O   UNL d   1      79.705  77.390  97.495  0.00  0.00    -0.230 OA
BRANCH  18  19
ATOM     19  C   UNL d   1      80.658  78.257  97.935  0.00  0.00     0.320 C 
ATOM     20  O   UNL d   1      80.917  78.389  99.136  0.00  0.00    -0.257 OA
BRANCH  19  21
ATOM     21  C   UNL d   1      81.423  79.013  96.936  0.00  0.00     0.126 C 
ATOM     22  C   UNL d   1      80.933  80.305  96.514  0.00  0.00    -0.025 C 
ATOM     23  C   UNL d   1      79.548  80.845  96.915  0.00  0.00     0.028 C 
ATOM     24  C   UNL d   1      81.906  81.498  96.343  0.00  0.00     0.028 C 
ATOM     25  N   UNL d   1      82.805  78.659  96.751  0.00  0.00    -0.096 NA
ENDBRANCH  19  21
ENDBRANCH  18  19
ENDBRANCH  17  18
ENDBRANCH   1  17
TORSDOF 7
ENDMDL
MODEL 16
REMARK VINA RESULT:      -5.6      2.574      3.783
REMARK  7 active torsions:
REMARK  status: ('A' for Active; 'I' for Inactive)
REMARK    1  A    between atoms: N_10  and  C_11 
REMARK    2  A    between atoms: C_11  and  O_12 
REMARK    3  A    between atoms: O_12  and  C_13 
REMARK    4  A    between atoms: C_13  and  C_14 
REMARK    5  A    between atoms: C_14  and  O_15 
REMARK    6  A    between atoms: O_15  and  C_16 
REMARK    7  A    between atoms: C_16  and  C_18 
ROOT
ATOM      1  C   UNL d   1      64.137  85.559  91.732  0.00  0.00     0.293 C 
ATOM      2  C   UNL d   1      64.850  84.382  91.309  0.00  0.00     0.075 C 
ATOM      3  O   UNL d   1      65.601  83.260  91.044  0.00  0.00    -0.139 OA
ENDROOT
BRANCH   1   4
ATOM      4  O   UNL d   1      62.995  85.940  91.041  0.00  0.00    -0.254 OA
BRANCH   4   5
ATOM      5  C   UNL d   1      62.678  87.237  91.159  0.00  0.00     0.084 C 
BRANCH   5   6
ATOM      6  N   UNL d   1      62.388  88.670  91.259  0.00  0.00    -0.120 NA
ATOM      7  C   UNL d   1      62.677  89.219  92.587  0.00  0.00     0.162 A 
ATOM      8  N   UNL d   1      62.060  88.903  93.745  0.00  0.00    -0.200 NA
ATOM      9  C   UNL d   1      63.656  90.305  92.535  0.00  0.00     0.170 A 
ATOM     10  C   UNL d   1      62.427  89.627  94.837  0.00  0.00     0.241 A 
ATOM     11  N   UNL d   1      63.322  90.652  94.891  0.00  0.00    -0.174 NA
ATOM     12  N   UNL d   1      61.788  89.279  96.074  0.00  0.00    -0.059 NA
ATOM     13  C   UNL d   1      63.980  91.060  93.784  0.00  0.00     0.302 A 
ATOM     14  O   UNL d   1      64.796  91.994  93.778  0.00  0.00    -0.263 OA
ATOM     15  N   UNL d   1      64.193  90.496  91.286  0.00  0.00    -0.223 NA
ATOM     16  C   UNL d   1      63.419  89.462  90.608  0.00  0.00     0.167 C 
ENDBRANCH   5   6
ENDBRANCH   4   5
ENDBRANCH   1   4
BRANCH   1  17
ATOM     17  C   UNL d   1      64.518  86.104  92.996  0.00  0.00     0.045 C 
BRANCH  17  18
ATOM     18  O   UNL d   1      64.900  86.786  94.073  0.00  0.00    -0.230 OA
BRANCH  18  19
ATOM     19  C   UNL d   1      65.974  87.616  93.956  0.00  0.00     0.320 C 
ATOM     20  O   UNL d   1      66.324  88.082  92.866  0.00  0.00    -0.257 OA
BRANCH  19  21
ATOM     21  C   UNL d   1      66.694  87.996  95.178  0.00  0.00     0.126 C 
ATOM     22  C   UNL d   1      67.710  87.108  95.692  0.00  0.00    -0.025 C 
ATOM     23  C   UNL d   1      67.945  85.692  95.133  0.00  0.00     0.028 C 
ATOM     24  C   UNL d   1      69.057  87.671  96.211  0.00  0.00     0.028 C 
ATOM     25  N   UNL d   1      66.677  89.385  95.554  0.00  0.00    -0.096 NA
ENDBRANCH  19  21
ENDBRANCH  18  19
ENDBRANCH  17  18
ENDBRANCH   1  17
TORSDOF 7
ENDMDL
MODEL 17
REMARK VINA RESULT:      -5.6      2.976      4.288
REMARK  7 active torsions:
REMARK  status: ('A' for Active; 'I' for Inactive)
REMARK    1  A    between atoms: N_10  and  C_11 
REMARK    2  A    between atoms: C_11  and  O_12 
REMARK    3  A    between atoms: O_12  and  C_13 
REMARK    4  A    between atoms: C_13  and  C_14 
REMARK    5  A    between atoms: C_14  and  O_15 
REMARK    6  A    between atoms: O_15  and  C_16 
REMARK    7  A    between atoms: C_16  and  C_18 
ROOT
ATOM      1  C   UNL d   1      64.990  85.605  91.346  0.00  0.00     0.293 C 
ATOM      2  C   UNL d   1      65.395  84.251  91.073  0.00  0.00     0.075 C 
ATOM      3  O   UNL d   1      65.916  82.992  90.883  0.00  0.00    -0.139 OA
ENDROOT
BRANCH   1   4
ATOM      4  O   UNL d   1      63.646  85.938  91.258  0.00  0.00    -0.254 OA
BRANCH   4   5
ATOM      5  C   UNL d   1      63.395  87.255  91.260  0.00  0.00     0.084 C 
BRANCH   5   6
ATOM      6  N   UNL d   1      63.184  88.704  91.254  0.00  0.00    -0.120 NA
ATOM      7  C   UNL d   1      62.592  89.200  92.500  0.00  0.00     0.162 A 
ATOM      8  N   UNL d   1      61.363  88.915  92.981  0.00  0.00    -0.200 NA
ATOM      9  C   UNL d   1      63.436  90.200  93.153  0.00  0.00     0.170 A 
ATOM     10  C   UNL d   1      60.991  89.582  94.106  0.00  0.00     0.241 A 
ATOM     11  N   UNL d   1      61.700  90.527  94.785  0.00  0.00    -0.174 NA
ATOM     12  N   UNL d   1      59.694  89.266  94.633  0.00  0.00    -0.059 NA
ATOM     13  C   UNL d   1      62.932  90.900  94.375  0.00  0.00     0.302 A 
ATOM     14  O   UNL d   1      63.614  91.761  94.951  0.00  0.00    -0.263 OA
ATOM     15  N   UNL d   1      64.653  90.370  92.542  0.00  0.00    -0.223 NA
ATOM     16  C   UNL d   1      64.434  89.419  91.458  0.00  0.00     0.167 C 
ENDBRANCH   5   6
ENDBRANCH   4   5
ENDBRANCH   1   4
BRANCH   1  17
ATOM     17  C   UNL d   1      65.978  86.448  91.940  0.00  0.00     0.045 C 
BRANCH  17  18
ATOM     18  O   UNL d   1      66.852  87.141  92.668  0.00  0.00    -0.230 OA
BRANCH  18  19
ATOM     19  C   UNL d   1      68.079  86.592  92.886  0.00  0.00     0.320 C 
ATOM     20  O   UNL d   1      68.940  86.541  92.001  0.00  0.00    -0.257 OA
BRANCH  19  21
ATOM     21  C   UNL d   1      68.387  86.094  94.233  0.00  0.00     0.126 C 
ATOM     22  C   UNL d   1      68.613  84.680  94.418  0.00  0.00    -0.025 C 
ATOM     23  C   UNL d   1      68.360  83.640  93.311  0.00  0.00     0.028 C 
ATOM     24  C   UNL d   1      69.771  84.180  95.319  0.00  0.00     0.028 C 
ATOM     25  N   UNL d   1      68.871  87.045  95.197  0.00  0.00    -0.096 NA
ENDBRANCH  19  21
ENDBRANCH  18  19
ENDBRANCH  17  18
ENDBRANCH   1  17
TORSDOF 7
ENDMDL
MODEL 18
REMARK VINA RESULT:      -5.5     13.589     16.922
REMARK  7 active torsions:
REMARK  status: ('A' for Active; 'I' for Inactive)
REMARK    1  A    between atoms: N_10  and  C_11 
REMARK    2  A    between atoms: C_11  and  O_12 
REMARK    3  A    between atoms: O_12  and  C_13 
REMARK    4  A    between atoms: C_13  and  C_14 
REMARK    5  A    between atoms: C_14  and  O_15 
REMARK    6  A    between atoms: O_15  and  C_16 
REMARK    7  A    between atoms: C_16  and  C_18 
ROOT
ATOM      1  C   UNL d   1      69.116  74.263 104.812  0.00  0.00     0.293 C 
ATOM      2  C   UNL d   1      68.463  75.166 103.900  0.00  0.00     0.075 C 
ATOM      3  O   UNL d   1      67.783  75.901 102.956  0.00  0.00    -0.139 OA
ENDROOT
BRANCH   1   4
ATOM      4  O   UNL d   1      69.587  74.752 106.022  0.00  0.00    -0.254 OA
BRANCH   4   5
ATOM      5  C   UNL d   1      70.297  75.886 105.927  0.00  0.00     0.084 C 
BRANCH   5   6
ATOM      6  N   UNL d   1      71.023  77.151 105.791  0.00  0.00    -0.120 NA
ATOM      7  C   UNL d   1      71.222  77.548 104.394  0.00  0.00     0.162 A 
ATOM      8  N   UNL d   1      71.958  76.901 103.466  0.00  0.00    -0.200 NA
ATOM      9  C   UNL d   1      70.634  78.855 104.102  0.00  0.00     0.170 A 
ATOM     10  C   UNL d   1      72.084  77.520 102.262  0.00  0.00     0.241 A 
ATOM     11  N   UNL d   1      71.580  78.730 101.893  0.00  0.00    -0.174 NA
ATOM     12  N   UNL d   1      72.849  76.825 101.266  0.00  0.00    -0.059 NA
ATOM     13  C   UNL d   1      70.845  79.468 102.754  0.00  0.00     0.302 A 
ATOM     14  O   UNL d   1      70.373  80.579 102.472  0.00  0.00    -0.263 OA
ATOM     15  N   UNL d   1      69.914  79.376 105.147  0.00  0.00    -0.223 NA
ATOM     16  C   UNL d   1      70.163  78.286 106.085  0.00  0.00     0.167 C 
ENDBRANCH   5   6
ENDBRANCH   4   5
ENDBRANCH   1   4
BRANCH   1  17
ATOM     17  C   UNL d   1      69.000  72.872 104.510  0.00  0.00     0.045 C 
BRANCH  17  18
ATOM     18  O   UNL d   1      68.967  71.625 104.045  0.00  0.00    -0.230 OA
BRANCH  18  19
ATOM     19  C   UNL d   1      68.465  71.422 102.795  0.00  0.00     0.320 C 
ATOM     20  O   UNL d   1      67.371  71.880 102.448  0.00  0.00    -0.257 OA
BRANCH  19  21
ATOM     21  C   UNL d   1      69.284  70.678 101.831  0.00  0.00     0.126 C 
ATOM     22  C   UNL d   1      70.341  71.372 101.132  0.00  0.00    -0.025 C 
ATOM     23  C   UNL d   1      70.529  72.898 101.203  0.00  0.00     0.028 C 
ATOM     24  C   UNL d   1      71.727  70.705 100.940  0.00  0.00     0.028 C 
ATOM     25  N   UNL d   1      69.299  69.243 101.941  0.00  0.00    -0.096 NA
ENDBRANCH  19  21
ENDBRANCH  18  19
ENDBRANCH  17  18
ENDBRANCH   1  17
TORSDOF 7
ENDMDL
MODEL 19
REMARK VINA RESULT:      -5.5     22.899     25.460
REMARK  7 active torsions:
REMARK  status: ('A' for Active; 'I' for Inactive)
REMARK    1  A    between atoms: N_10  and  C_11 
REMARK    2  A    between atoms: C_11  and  O_12 
REMARK    3  A    between atoms: O_12  and  C_13 
REMARK    4  A    between atoms: C_13  and  C_14 
REMARK    5  A    between atoms: C_14  and  O_15 
REMARK    6  A    between atoms: O_15  and  C_16 
REMARK    7  A    between atoms: C_16  and  C_18 
ROOT
ATOM      1  C   UNL d   1      56.268  69.795  77.084  0.00  0.00     0.293 C 
ATOM      2  C   UNL d   1      57.359  68.994  76.593  0.00  0.00     0.075 C 
ATOM      3  O   UNL d   1      58.471  68.257  76.260  0.00  0.00    -0.139 OA
ENDROOT
BRANCH   1   4
ATOM      4  O   UNL d   1      55.037  69.722  76.447  0.00  0.00    -0.254 OA
BRANCH   4   5
ATOM      5  C   UNL d   1      54.323  70.856  76.479  0.00  0.00     0.084 C 
BRANCH   5   6
ATOM      6  N   UNL d   1      53.513  72.076  76.458  0.00  0.00    -0.120 NA
ATOM      7  C   UNL d   1      53.465  72.752  77.759  0.00  0.00     0.162 A 
ATOM      8  N   UNL d   1      52.916  72.277  78.897  0.00  0.00    -0.200 NA
ATOM      9  C   UNL d   1      53.969  74.123  77.688  0.00  0.00     0.170 A 
ATOM     10  C   UNL d   1      52.895  73.133  79.954  0.00  0.00     0.241 A 
ATOM     11  N   UNL d   1      53.335  74.421  79.989  0.00  0.00    -0.174 NA
ATOM     12  N   UNL d   1      52.332  72.624  81.172  0.00  0.00    -0.059 NA
ATOM     13  C   UNL d   1      53.883  74.999  78.897  0.00  0.00     0.302 A 
ATOM     14  O   UNL d   1      54.289  76.170  78.874  0.00  0.00    -0.263 OA
ATOM     15  N   UNL d   1      54.497  74.448  76.464  0.00  0.00    -0.223 NA
ATOM     16  C   UNL d   1      54.224  73.170  75.816  0.00  0.00     0.167 C 
ENDBRANCH   5   6
ENDBRANCH   4   5
ENDBRANCH   1   4
BRANCH   1  17
ATOM     17  C   UNL d   1      56.466  70.415  78.356  0.00  0.00     0.045 C 
BRANCH  17  18
ATOM     18  O   UNL d   1      56.453  70.957  79.572  0.00  0.00    -0.230 OA
BRANCH  18  19
ATOM     19  C   UNL d   1      57.047  72.173  79.735  0.00  0.00     0.320 C 
ATOM     20  O   UNL d   1      56.860  73.102  78.943  0.00  0.00    -0.257 OA
BRANCH  19  21
ATOM     21  C   UNL d   1      57.890  72.379  80.919  0.00  0.00     0.126 C 
ATOM     22  C   UNL d   1      57.257  72.509  82.211  0.00  0.00    -0.025 C 
ATOM     23  C   UNL d   1      55.732  72.635  82.387  0.00  0.00     0.028 C 
ATOM     24  C   UNL d   1      57.846  71.791  83.451  0.00  0.00     0.028 C 
ATOM     25  N   UNL d   1      59.277  72.013  80.817  0.00  0.00    -0.096 NA
ENDBRANCH  19  21
ENDBRANCH  18  19
ENDBRANCH  17  18
ENDBRANCH   1  17
TORSDOF 7
ENDMDL
MODEL 20
REMARK VINA RESULT:      -5.4     13.598     15.655
REMARK  7 active torsions:
REMARK  status: ('A' for Active; 'I' for Inactive)
REMARK    1  A    between atoms: N_10  and  C_11 
REMARK    2  A    between atoms: C_11  and  O_12 
REMARK    3  A    between atoms: O_12  and  C_13 
REMARK    4  A    between atoms: C_13  and  C_14 
REMARK    5  A    between atoms: C_14  and  O_15 
REMARK    6  A    between atoms: O_15  and  C_16 
REMARK    7  A    between atoms: C_16  and  C_18 
ROOT
ATOM      1  C   UNL d   1      80.353  77.508  93.506  0.00  0.00     0.293 C 
ATOM      2  C   UNL d   1      80.947  76.571  92.588  0.00  0.00     0.075 C 
ATOM      3  O   UNL d   1      81.621  75.648  91.822  0.00  0.00    -0.139 OA
ENDROOT
BRANCH   1   4
ATOM      4  O   UNL d   1      79.058  77.950  93.273  0.00  0.00    -0.254 OA
BRANCH   4   5
ATOM      5  C   UNL d   1      78.725  79.073  93.926  0.00  0.00     0.084 C 
BRANCH   5   6
ATOM      6  N   UNL d   1      78.300  80.292  94.617  0.00  0.00    -0.120 NA
ATOM      7  C   UNL d   1      77.439  81.145  93.793  0.00  0.00     0.162 A 
ATOM      8  N   UNL d   1      77.784  81.782  92.654  0.00  0.00    -0.200 NA
ATOM      9  C   UNL d   1      76.135  81.378  94.413  0.00  0.00     0.170 A 
ATOM     10  C   UNL d   1      76.844  82.609  92.121  0.00  0.00     0.241 A 
ATOM     11  N   UNL d   1      75.609  82.892  92.619  0.00  0.00    -0.174 NA
ATOM     12  N   UNL d   1      77.200  83.271  90.899  0.00  0.00    -0.059 NA
ATOM     13  C   UNL d   1      75.174  82.323  93.765  0.00  0.00     0.302 A 
ATOM     14  O   UNL d   1      74.064  82.555  94.266  0.00  0.00    -0.263 OA
ATOM     15  N   UNL d   1      75.940  80.653  95.561  0.00  0.00    -0.223 NA
ATOM     16  C   UNL d   1      77.250  80.011  95.582  0.00  0.00     0.167 C 
ENDBRANCH   5   6
ENDBRANCH   4   5
ENDBRANCH   1   4
BRANCH   1  17
ATOM     17  C   UNL d   1      81.053  77.715  94.733  0.00  0.00     0.045 C 
BRANCH  17  18
ATOM     18  O   UNL d   1      81.521  77.921  95.962  0.00  0.00    -0.230 OA
BRANCH  18  19
ATOM     19  C   UNL d   1      82.288  79.026  96.176  0.00  0.00     0.320 C 
ATOM     20  O   UNL d   1      81.878  79.988  96.835  0.00  0.00    -0.257 OA
BRANCH  19  21
ATOM     21  C   UNL d   1      83.655  79.036  95.642  0.00  0.00     0.126 C 
ATOM     22  C   UNL d   1      83.981  79.957  94.578  0.00  0.00    -0.025 C 
ATOM     23  C   UNL d   1      82.919  80.795  93.843  0.00  0.00     0.028 C 
ATOM     24  C   UNL d   1      85.314  80.747  94.602  0.00  0.00     0.028 C 
ATOM     25  N   UNL d   1      84.692  78.469  96.462  0.00  0.00    -0.096 NA
ENDBRANCH  19  21
ENDBRANCH  18  19
ENDBRANCH  17  18
ENDBRANCH   1  17
TORSDOF 7
ENDMDL
