MODEL 1
REMARK VINA RESULT:      -1.3      0.000      0.000
REMARK  3 active torsions:
REMARK  status: ('A' for Active; 'I' for Inactive)
REMARK    1  A    between atoms: C_4  and  C_5 
REMARK    2  A    between atoms: C_5  and  C_6 
REMARK    3  A    between atoms: C_5  and  C_9 
ROOT
ATOM      1 NA   UNL d   1      69.550  64.477  88.011  0.00  0.00     0.000 Na
ENDROOT
TORSDOF 3
ENDMDL
MODEL 2
REMARK VINA RESULT:      -1.2     28.518     28.518
REMARK  3 active torsions:
REMARK  status: ('A' for Active; 'I' for Inactive)
REMARK    1  A    between atoms: C_4  and  C_5 
REMARK    2  A    between atoms: C_5  and  C_6 
REMARK    3  A    between atoms: C_5  and  C_9 
ROOT
ATOM      1 NA   UNL d   1      79.756  90.280  94.592  0.00  0.00     0.000 Na
ENDROOT
TORSDOF 3
ENDMDL
MODEL 3
REMARK VINA RESULT:      -1.2     19.834     19.834
REMARK  3 active torsions:
REMARK  status: ('A' for Active; 'I' for Inactive)
REMARK    1  A    between atoms: C_4  and  C_5 
REMARK    2  A    between atoms: C_5  and  C_6 
REMARK    3  A    between atoms: C_5  and  C_9 
ROOT
ATOM      1 NA   UNL d   1      65.877  80.049  76.288  0.00  0.00     0.000 Na
ENDROOT
TORSDOF 3
ENDMDL
MODEL 4
REMARK VINA RESULT:      -1.2     16.299     16.299
REMARK  3 active torsions:
REMARK  status: ('A' for Active; 'I' for Inactive)
REMARK    1  A    between atoms: C_4  and  C_5 
REMARK    2  A    between atoms: C_5  and  C_6 
REMARK    3  A    between atoms: C_5  and  C_9 
ROOT
ATOM      1 NA   UNL d   1      55.005  63.125  95.242  0.00  0.00     0.000 Na
ENDROOT
TORSDOF 3
ENDMDL
MODEL 5
REMARK VINA RESULT:      -1.1     18.292     18.292
REMARK  3 active torsions:
REMARK  status: ('A' for Active; 'I' for Inactive)
REMARK    1  A    between atoms: C_4  and  C_5 
REMARK    2  A    between atoms: C_5  and  C_6 
REMARK    3  A    between atoms: C_5  and  C_9 
ROOT
ATOM      1 NA   UNL d   1      61.014  79.652  82.403  0.00  0.00     0.000 Na
ENDROOT
TORSDOF 3
ENDMDL
MODEL 6
REMARK VINA RESULT:      -1.1     11.732     11.732
REMARK  3 active torsions:
REMARK  status: ('A' for Active; 'I' for Inactive)
REMARK    1  A    between atoms: C_4  and  C_5 
REMARK    2  A    between atoms: C_5  and  C_6 
REMARK    3  A    between atoms: C_5  and  C_9 
ROOT
ATOM      1 NA   UNL d   1      57.964  66.308  88.272  0.00  0.00     0.000 Na
ENDROOT
TORSDOF 3
ENDMDL
MODEL 7
REMARK VINA RESULT:      -1.1     22.798     22.798
REMARK  3 active torsions:
REMARK  status: ('A' for Active; 'I' for Inactive)
REMARK    1  A    between atoms: C_4  and  C_5 
REMARK    2  A    between atoms: C_5  and  C_6 
REMARK    3  A    between atoms: C_5  and  C_9 
ROOT
ATOM      1 NA   UNL d   1      78.121  73.978 106.879  0.00  0.00     0.000 Na
ENDROOT
TORSDOF 3
ENDMDL
MODEL 8
REMARK VINA RESULT:      -1.1     19.074     19.074
REMARK  3 active torsions:
REMARK  status: ('A' for Active; 'I' for Inactive)
REMARK    1  A    between atoms: C_4  and  C_5 
REMARK    2  A    between atoms: C_5  and  C_6 
REMARK    3  A    between atoms: C_5  and  C_9 
ROOT
ATOM      1 NA   UNL d   1      55.087  76.897  88.637  0.00  0.00     0.000 Na
ENDROOT
TORSDOF 3
ENDMDL
MODEL 9
REMARK VINA RESULT:      -1.0     15.844     15.844
REMARK  3 active torsions:
REMARK  status: ('A' for Active; 'I' for Inactive)
REMARK    1  A    between atoms: C_4  and  C_5 
REMARK    2  A    between atoms: C_5  and  C_6 
REMARK    3  A    between atoms: C_5  and  C_9 
ROOT
ATOM      1 NA   UNL d   1      73.027  79.285  83.573  0.00  0.00     0.000 Na
ENDROOT
TORSDOF 3
ENDMDL
MODEL 10
REMARK VINA RESULT:      -1.0      7.922      7.922
REMARK  3 active torsions:
REMARK  status: ('A' for Active; 'I' for Inactive)
REMARK    1  A    between atoms: C_4  and  C_5 
REMARK    2  A    between atoms: C_5  and  C_6 
REMARK    3  A    between atoms: C_5  and  C_9 
ROOT
ATOM      1 NA   UNL d   1      63.927  60.370  91.790  0.00  0.00     0.000 Na
ENDROOT
TORSDOF 3
ENDMDL
MODEL 11
REMARK VINA RESULT:      -1.0     17.046     17.046
REMARK  3 active torsions:
REMARK  status: ('A' for Active; 'I' for Inactive)
REMARK    1  A    between atoms: C_4  and  C_5 
REMARK    2  A    between atoms: C_5  and  C_6 
REMARK    3  A    between atoms: C_5  and  C_9 
ROOT
ATOM      1 NA   UNL d   1      77.854  76.721  79.543  0.00  0.00     0.000 Na
ENDROOT
TORSDOF 3
ENDMDL
MODEL 12
REMARK VINA RESULT:      -1.0     29.591     29.591
REMARK  3 active torsions:
REMARK  status: ('A' for Active; 'I' for Inactive)
REMARK    1  A    between atoms: C_4  and  C_5 
REMARK    2  A    between atoms: C_5  and  C_6 
REMARK    3  A    between atoms: C_5  and  C_9 
ROOT
ATOM      1 NA   UNL d   1      67.017  91.596  76.442  0.00  0.00     0.000 Na
ENDROOT
TORSDOF 3
ENDMDL
MODEL 13
REMARK VINA RESULT:      -1.0     29.479     29.479
REMARK  3 active torsions:
REMARK  status: ('A' for Active; 'I' for Inactive)
REMARK    1  A    between atoms: C_4  and  C_5 
REMARK    2  A    between atoms: C_5  and  C_6 
REMARK    3  A    between atoms: C_5  and  C_9 
ROOT
ATOM      1 NA   UNL d   1      86.456  82.513  71.951  0.00  0.00     0.000 Na
ENDROOT
TORSDOF 3
ENDMDL
MODEL 14
REMARK VINA RESULT:      -1.0     24.083     24.083
REMARK  3 active torsions:
REMARK  status: ('A' for Active; 'I' for Inactive)
REMARK    1  A    between atoms: C_4  and  C_5 
REMARK    2  A    between atoms: C_5  and  C_6 
REMARK    3  A    between atoms: C_5  and  C_9 
ROOT
ATOM      1 NA   UNL d   1      81.880  75.266 105.661  0.00  0.00     0.000 Na
ENDROOT
TORSDOF 3
ENDMDL
MODEL 15
REMARK VINA RESULT:      -1.0     17.936     17.936
REMARK  3 active torsions:
REMARK  status: ('A' for Active; 'I' for Inactive)
REMARK    1  A    between atoms: C_4  and  C_5 
REMARK    2  A    between atoms: C_5  and  C_6 
REMARK    3  A    between atoms: C_5  and  C_9 
ROOT
ATOM      1 NA   UNL d   1      76.383  80.787  85.009  0.00  0.00     0.000 Na
ENDROOT
TORSDOF 3
ENDMDL
MODEL 16
REMARK VINA RESULT:      -1.0     22.108     22.108
REMARK  3 active torsions:
REMARK  status: ('A' for Active; 'I' for Inactive)
REMARK    1  A    between atoms: C_4  and  C_5 
REMARK    2  A    between atoms: C_5  and  C_6 
REMARK    3  A    between atoms: C_5  and  C_9 
ROOT
ATOM      1 NA   UNL d   1      77.733  75.699 105.212  0.00  0.00     0.000 Na
ENDROOT
TORSDOF 3
ENDMDL
MODEL 17
REMARK VINA RESULT:      -0.9     22.024     22.024
REMARK  3 active torsions:
REMARK  status: ('A' for Active; 'I' for Inactive)
REMARK    1  A    between atoms: C_4  and  C_5 
REMARK    2  A    between atoms: C_5  and  C_6 
REMARK    3  A    between atoms: C_5  and  C_9 
ROOT
ATOM      1 NA   UNL d   1      81.039  75.127 103.492  0.00  0.00     0.000 Na
ENDROOT
TORSDOF 3
ENDMDL
MODEL 18
REMARK VINA RESULT:      -0.9     29.538     29.538
REMARK  3 active torsions:
REMARK  status: ('A' for Active; 'I' for Inactive)
REMARK    1  A    between atoms: C_4  and  C_5 
REMARK    2  A    between atoms: C_5  and  C_6 
REMARK    3  A    between atoms: C_5  and  C_9 
ROOT
ATOM      1 NA   UNL d   1      66.749  93.060  81.105  0.00  0.00     0.000 Na
ENDROOT
TORSDOF 3
ENDMDL
MODEL 19
REMARK VINA RESULT:      -0.9     16.181     16.181
REMARK  3 active torsions:
REMARK  status: ('A' for Active; 'I' for Inactive)
REMARK    1  A    between atoms: C_4  and  C_5 
REMARK    2  A    between atoms: C_5  and  C_6 
REMARK    3  A    between atoms: C_5  and  C_9 
ROOT
ATOM      1 NA   UNL d   1      56.507  64.174  97.583  0.00  0.00     0.000 Na
ENDROOT
TORSDOF 3
ENDMDL
MODEL 20
REMARK VINA RESULT:      -0.9     20.945     20.945
REMARK  3 active torsions:
REMARK  status: ('A' for Active; 'I' for Inactive)
REMARK    1  A    between atoms: C_4  and  C_5 
REMARK    2  A    between atoms: C_5  and  C_6 
REMARK    3  A    between atoms: C_5  and  C_9 
ROOT
ATOM      1 NA   UNL d   1      83.980  76.252  78.431  0.00  0.00     0.000 Na
ENDROOT
TORSDOF 3
ENDMDL
