MODEL 1
REMARK VINA RESULT:      -1.1      0.000      0.000
REMARK  5 active torsions:
REMARK  status: ('A' for Active; 'I' for Inactive)
REMARK    1  A    between atoms: O_3  and  C_4 
REMARK    2  A    between atoms: C_7  and  C_10 
REMARK    3  A    between atoms: C_10  and  C_11 
REMARK    4  A    between atoms: C_10  and  C_15 
REMARK    5  A    between atoms: C_11  and  N_12 
ROOT
ATOM      1 CL   UNL d   1      67.206  88.740  77.744  0.00  0.00     0.000 Cl
ENDROOT
TORSDOF 5
ENDMDL
MODEL 2
REMARK VINA RESULT:      -1.1     16.649     16.649
REMARK  5 active torsions:
REMARK  status: ('A' for Active; 'I' for Inactive)
REMARK    1  A    between atoms: O_3  and  C_4 
REMARK    2  A    between atoms: C_7  and  C_10 
REMARK    3  A    between atoms: C_10  and  C_11 
REMARK    4  A    between atoms: C_10  and  C_15 
REMARK    5  A    between atoms: C_11  and  N_12 
ROOT
ATOM      1 CL   UNL d   1      79.243  78.208  82.364  0.00  0.00     0.000 Cl
ENDROOT
TORSDOF 5
ENDMDL
MODEL 3
REMARK VINA RESULT:      -0.9     29.531     29.531
REMARK  5 active torsions:
REMARK  status: ('A' for Active; 'I' for Inactive)
REMARK    1  A    between atoms: O_3  and  C_4 
REMARK    2  A    between atoms: C_7  and  C_10 
REMARK    3  A    between atoms: C_10  and  C_11 
REMARK    4  A    between atoms: C_10  and  C_15 
REMARK    5  A    between atoms: C_11  and  N_12 
ROOT
ATOM      1 CL   UNL d   1      56.592  63.060  87.740  0.00  0.00     0.000 Cl
ENDROOT
TORSDOF 5
ENDMDL
MODEL 4
REMARK VINA RESULT:      -0.9     38.735     38.735
REMARK  5 active torsions:
REMARK  status: ('A' for Active; 'I' for Inactive)
REMARK    1  A    between atoms: O_3  and  C_4 
REMARK    2  A    between atoms: C_7  and  C_10 
REMARK    3  A    between atoms: C_10  and  C_11 
REMARK    4  A    between atoms: C_10  and  C_15 
REMARK    5  A    between atoms: C_11  and  N_12 
ROOT
ATOM      1 CL   UNL d   1      73.499  58.604 101.251  0.00  0.00     0.000 Cl
ENDROOT
TORSDOF 5
ENDMDL
MODEL 5
REMARK VINA RESULT:      -0.9     19.389     19.389
REMARK  5 active torsions:
REMARK  status: ('A' for Active; 'I' for Inactive)
REMARK    1  A    between atoms: O_3  and  C_4 
REMARK    2  A    between atoms: C_7  and  C_10 
REMARK    3  A    between atoms: C_10  and  C_11 
REMARK    4  A    between atoms: C_10  and  C_15 
REMARK    5  A    between atoms: C_11  and  N_12 
ROOT
ATOM      1 CL   UNL d   1      57.094  74.249  85.723  0.00  0.00     0.000 Cl
ENDROOT
TORSDOF 5
ENDMDL
MODEL 6
REMARK VINA RESULT:      -0.9     13.658     13.658
REMARK  5 active torsions:
REMARK  status: ('A' for Active; 'I' for Inactive)
REMARK    1  A    between atoms: O_3  and  C_4 
REMARK    2  A    between atoms: C_7  and  C_10 
REMARK    3  A    between atoms: C_10  and  C_11 
REMARK    4  A    between atoms: C_10  and  C_15 
REMARK    5  A    between atoms: C_11  and  N_12 
ROOT
ATOM      1 CL   UNL d   1      61.539  76.751  81.008  0.00  0.00     0.000 Cl
ENDROOT
TORSDOF 5
ENDMDL
MODEL 7
REMARK VINA RESULT:      -0.8     32.044     32.044
REMARK  5 active torsions:
REMARK  status: ('A' for Active; 'I' for Inactive)
REMARK    1  A    between atoms: O_3  and  C_4 
REMARK    2  A    between atoms: C_7  and  C_10 
REMARK    3  A    between atoms: C_10  and  C_11 
REMARK    4  A    between atoms: C_10  and  C_15 
REMARK    5  A    between atoms: C_11  and  N_12 
ROOT
ATOM      1 CL   UNL d   1      68.307  68.389 102.471  0.00  0.00     0.000 Cl
ENDROOT
TORSDOF 5
ENDMDL
MODEL 8
REMARK VINA RESULT:      -0.8     25.212     25.212
REMARK  5 active torsions:
REMARK  status: ('A' for Active; 'I' for Inactive)
REMARK    1  A    between atoms: O_3  and  C_4 
REMARK    2  A    between atoms: C_7  and  C_10 
REMARK    3  A    between atoms: C_10  and  C_11 
REMARK    4  A    between atoms: C_10  and  C_15 
REMARK    5  A    between atoms: C_11  and  N_12 
ROOT
ATOM      1 CL   UNL d   1      78.276  67.757  86.276  0.00  0.00     0.000 Cl
ENDROOT
TORSDOF 5
ENDMDL
MODEL 9
REMARK VINA RESULT:      -0.8     31.724     31.724
REMARK  5 active torsions:
REMARK  status: ('A' for Active; 'I' for Inactive)
REMARK    1  A    between atoms: O_3  and  C_4 
REMARK    2  A    between atoms: C_7  and  C_10 
REMARK    3  A    between atoms: C_10  and  C_11 
REMARK    4  A    between atoms: C_10  and  C_15 
REMARK    5  A    between atoms: C_11  and  N_12 
ROOT
ATOM      1 CL   UNL d   1      70.945  75.550 106.351  0.00  0.00     0.000 Cl
ENDROOT
TORSDOF 5
ENDMDL
MODEL 10
REMARK VINA RESULT:      -0.8     16.723     16.723
REMARK  5 active torsions:
REMARK  status: ('A' for Active; 'I' for Inactive)
REMARK    1  A    between atoms: O_3  and  C_4 
REMARK    2  A    between atoms: C_7  and  C_10 
REMARK    3  A    between atoms: C_10  and  C_11 
REMARK    4  A    between atoms: C_10  and  C_15 
REMARK    5  A    between atoms: C_11  and  N_12 
ROOT
ATOM      1 CL   UNL d   1      61.875  73.120  80.432  0.00  0.00     0.000 Cl
ENDROOT
TORSDOF 5
ENDMDL
MODEL 11
REMARK VINA RESULT:      -0.8     29.510     29.510
REMARK  5 active torsions:
REMARK  status: ('A' for Active; 'I' for Inactive)
REMARK    1  A    between atoms: O_3  and  C_4 
REMARK    2  A    between atoms: C_7  and  C_10 
REMARK    3  A    between atoms: C_10  and  C_11 
REMARK    4  A    between atoms: C_10  and  C_15 
REMARK    5  A    between atoms: C_11  and  N_12 
ROOT
ATOM      1 CL   UNL d   1      56.685  70.845  98.717  0.00  0.00     0.000 Cl
ENDROOT
TORSDOF 5
ENDMDL
MODEL 12
REMARK VINA RESULT:      -0.8     16.922     16.922
REMARK  5 active torsions:
REMARK  status: ('A' for Active; 'I' for Inactive)
REMARK    1  A    between atoms: O_3  and  C_4 
REMARK    2  A    between atoms: C_7  and  C_10 
REMARK    3  A    between atoms: C_10  and  C_11 
REMARK    4  A    between atoms: C_10  and  C_15 
REMARK    5  A    between atoms: C_11  and  N_12 
ROOT
ATOM      1 CL   UNL d   1      65.377  74.928  87.346  0.00  0.00     0.000 Cl
ENDROOT
TORSDOF 5
ENDMDL
MODEL 13
REMARK VINA RESULT:      -0.8     28.957     28.957
REMARK  5 active torsions:
REMARK  status: ('A' for Active; 'I' for Inactive)
REMARK    1  A    between atoms: O_3  and  C_4 
REMARK    2  A    between atoms: C_7  and  C_10 
REMARK    3  A    between atoms: C_10  and  C_11 
REMARK    4  A    between atoms: C_10  and  C_15 
REMARK    5  A    between atoms: C_11  and  N_12 
ROOT
ATOM      1 CL   UNL d   1      60.551  69.342  98.187  0.00  0.00     0.000 Cl
ENDROOT
TORSDOF 5
ENDMDL
MODEL 14
REMARK VINA RESULT:      -0.8     19.564     19.564
REMARK  5 active torsions:
REMARK  status: ('A' for Active; 'I' for Inactive)
REMARK    1  A    between atoms: O_3  and  C_4 
REMARK    2  A    between atoms: C_7  and  C_10 
REMARK    3  A    between atoms: C_10  and  C_11 
REMARK    4  A    between atoms: C_10  and  C_15 
REMARK    5  A    between atoms: C_11  and  N_12 
ROOT
ATOM      1 CL   UNL d   1      58.236  72.860  84.822  0.00  0.00     0.000 Cl
ENDROOT
TORSDOF 5
ENDMDL
MODEL 15
REMARK VINA RESULT:      -0.7     27.281     27.281
REMARK  5 active torsions:
REMARK  status: ('A' for Active; 'I' for Inactive)
REMARK    1  A    between atoms: O_3  and  C_4 
REMARK    2  A    between atoms: C_7  and  C_10 
REMARK    3  A    between atoms: C_10  and  C_11 
REMARK    4  A    between atoms: C_10  and  C_15 
REMARK    5  A    between atoms: C_11  and  N_12 
ROOT
ATOM      1 CL   UNL d   1      54.904  72.839  96.184  0.00  0.00     0.000 Cl
ENDROOT
TORSDOF 5
ENDMDL
MODEL 16
REMARK VINA RESULT:      -0.7     21.350     21.350
REMARK  5 active torsions:
REMARK  status: ('A' for Active; 'I' for Inactive)
REMARK    1  A    between atoms: O_3  and  C_4 
REMARK    2  A    between atoms: C_7  and  C_10 
REMARK    3  A    between atoms: C_10  and  C_11 
REMARK    4  A    between atoms: C_10  and  C_15 
REMARK    5  A    between atoms: C_11  and  N_12 
ROOT
ATOM      1 CL   UNL d   1      63.925  72.078  90.683  0.00  0.00     0.000 Cl
ENDROOT
TORSDOF 5
ENDMDL
MODEL 17
REMARK VINA RESULT:      -0.7     23.188     23.188
REMARK  5 active torsions:
REMARK  status: ('A' for Active; 'I' for Inactive)
REMARK    1  A    between atoms: O_3  and  C_4 
REMARK    2  A    between atoms: C_7  and  C_10 
REMARK    3  A    between atoms: C_10  and  C_11 
REMARK    4  A    between atoms: C_10  and  C_15 
REMARK    5  A    between atoms: C_11  and  N_12 
ROOT
ATOM      1 CL   UNL d   1      75.723  69.128  86.716  0.00  0.00     0.000 Cl
ENDROOT
TORSDOF 5
ENDMDL
MODEL 18
REMARK VINA RESULT:      -0.7     18.746     18.746
REMARK  5 active torsions:
REMARK  status: ('A' for Active; 'I' for Inactive)
REMARK    1  A    between atoms: O_3  and  C_4 
REMARK    2  A    between atoms: C_7  and  C_10 
REMARK    3  A    between atoms: C_10  and  C_11 
REMARK    4  A    between atoms: C_10  and  C_15 
REMARK    5  A    between atoms: C_11  and  N_12 
ROOT
ATOM      1 CL   UNL d   1      59.064  72.177  81.027  0.00  0.00     0.000 Cl
ENDROOT
TORSDOF 5
ENDMDL
MODEL 19
REMARK VINA RESULT:      -0.7     20.402     20.402
REMARK  5 active torsions:
REMARK  status: ('A' for Active; 'I' for Inactive)
REMARK    1  A    between atoms: O_3  and  C_4 
REMARK    2  A    between atoms: C_7  and  C_10 
REMARK    3  A    between atoms: C_10  and  C_11 
REMARK    4  A    between atoms: C_10  and  C_15 
REMARK    5  A    between atoms: C_11  and  N_12 
ROOT
ATOM      1 CL   UNL d   1      54.071  73.825  82.351  0.00  0.00     0.000 Cl
ENDROOT
TORSDOF 5
ENDMDL
MODEL 20
REMARK VINA RESULT:      -0.7     20.700     20.700
REMARK  5 active torsions:
REMARK  status: ('A' for Active; 'I' for Inactive)
REMARK    1  A    between atoms: O_3  and  C_4 
REMARK    2  A    between atoms: C_7  and  C_10 
REMARK    3  A    between atoms: C_10  and  C_11 
REMARK    4  A    between atoms: C_10  and  C_15 
REMARK    5  A    between atoms: C_11  and  N_12 
ROOT
ATOM      1 CL   UNL d   1      55.848  72.128  82.591  0.00  0.00     0.000 Cl
ENDROOT
TORSDOF 5
ENDMDL
