MODEL 1
REMARK VINA RESULT:      -7.0      0.000      0.000
REMARK  1 active torsions:
REMARK  status: ('A' for Active; 'I' for Inactive)
REMARK    1  A    between atoms: C1*_11  and  N9_1 
ROOT
ATOM      1  C1*  A1 d          76.232  69.285  88.712  0.00  0.00     0.214 A 
ATOM      2  O4*  A1 d          77.099  68.374  89.337  0.00  0.00    -0.275 OA
ATOM      3  C4*  A1 d          77.816  67.642  88.369  0.00  0.00     0.204 A 
ATOM      4  C3*  A1 d          77.362  68.091  87.031  0.00  0.00     0.270 A 
ATOM      5  C2*  A1 d          76.356  69.147  87.269  0.00  0.00     0.276 A 
ATOM      6  O2*  A1 d          75.300  69.255  86.582  0.00  0.00    -0.279 OA
ATOM      7  O3*  A1 d          78.227  68.277  86.125  0.00  0.00    -0.280 OA
ATOM      8  C5*  A1 d          78.602  66.516  88.807  0.00  0.00     0.085 C 
ATOM      9  O5*  A1 d          79.331  65.463  89.346  0.00  0.00    -0.135 OA
ENDROOT
BRANCH   1  10
ATOM     10  N9   A1 d          75.439  70.161  89.430  0.00  0.00    -0.250 N 
ATOM     11  C4   A1 d          75.691  71.484  89.770  0.00  0.00     0.173 A 
ATOM     12  C5   A1 d          74.584  71.909  90.490  0.00  0.00     0.148 A 
ATOM     13  N3   A1 d          76.775  72.239  89.492  0.00  0.00    -0.205 NA
ATOM     14  N7   A1 d          73.641  70.921  90.596  0.00  0.00    -0.220 NA
ATOM     15  C6   A1 d          74.625  73.222  90.961  0.00  0.00     0.173 A 
ATOM     16  C8   A1 d          74.188  69.898  89.962  0.00  0.00     0.186 A 
ATOM     17  N1   A1 d          75.692  74.015  90.711  0.00  0.00    -0.208 NA
ATOM     18  N6   A1 d          73.542  73.759  91.720  0.00  0.00    -0.078 NA
ATOM     19  C2   A1 d          76.695  73.472  89.994  0.00  0.00     0.202 A 
ENDBRANCH   1  10
TORSDOF 1
ENDMDL
MODEL 2
REMARK VINA RESULT:      -6.9     23.363     24.705
REMARK  1 active torsions:
REMARK  status: ('A' for Active; 'I' for Inactive)
REMARK    1  A    between atoms: C1*_11  and  N9_1 
ROOT
ATOM      1  C1*  A1 d          61.845  89.700  93.893  0.00  0.00     0.214 A 
ATOM      2  O4*  A1 d          61.464  88.879  92.819  0.00  0.00    -0.275 OA
ATOM      3  C4*  A1 d          60.162  88.381  93.025  0.00  0.00     0.204 A 
ATOM      4  C3*  A1 d          59.682  88.892  94.331  0.00  0.00     0.270 A 
ATOM      5  C2*  A1 d          60.767  89.740  94.868  0.00  0.00     0.276 A 
ATOM      6  O2*  A1 d          61.089  89.749  96.091  0.00  0.00    -0.279 OA
ATOM      7  O3*  A1 d          58.490  89.311  94.421  0.00  0.00    -0.280 OA
ATOM      8  C5*  A1 d          59.673  87.356  92.138  0.00  0.00     0.085 C 
ATOM      9  O5*  A1 d          59.306  86.382  91.216  0.00  0.00    -0.135 OA
ENDROOT
BRANCH   1  10
ATOM     10  N9   A1 d          63.063  90.354  93.926  0.00  0.00    -0.250 N 
ATOM     11  C4   A1 d          64.154  90.123  94.754  0.00  0.00     0.173 A 
ATOM     12  C5   A1 d          65.116  91.051  94.381  0.00  0.00     0.148 A 
ATOM     13  N3   A1 d          64.292  89.209  95.737  0.00  0.00    -0.205 NA
ATOM     14  N7   A1 d          64.687  91.835  93.343  0.00  0.00    -0.220 NA
ATOM     15  C6   A1 d          66.311  91.020  95.104  0.00  0.00     0.173 A 
ATOM     16  C8   A1 d          63.463  91.398  93.107  0.00  0.00     0.186 A 
ATOM     17  N1   A1 d          66.494  90.124  96.101  0.00  0.00    -0.208 NA
ATOM     18  N6   A1 d          67.366  91.935  94.809  0.00  0.00    -0.078 NA
ATOM     19  C2   A1 d          65.475  89.280  96.351  0.00  0.00     0.202 A 
ENDBRANCH   1  10
TORSDOF 1
ENDMDL
MODEL 3
REMARK VINA RESULT:      -6.9      3.282      6.224
REMARK  1 active torsions:
REMARK  status: ('A' for Active; 'I' for Inactive)
REMARK    1  A    between atoms: C1*_11  and  N9_1 
ROOT
ATOM      1  C1*  A1 d          76.027  70.286  90.153  0.00  0.00     0.214 A 
ATOM      2  O4*  A1 d          76.634  71.542  90.314  0.00  0.00    -0.275 OA
ATOM      3  C4*  A1 d          75.653  72.533  90.524  0.00  0.00     0.204 A 
ATOM      4  C3*  A1 d          74.325  71.877  90.468  0.00  0.00     0.270 A 
ATOM      5  C2*  A1 d          74.583  70.440  90.239  0.00  0.00     0.276 A 
ATOM      6  O2*  A1 d          73.876  69.730  89.466  0.00  0.00    -0.279 OA
ATOM      7  O3*  A1 d          73.448  72.202  91.322  0.00  0.00    -0.280 OA
ATOM      8  C5*  A1 d          76.062  73.915  90.502  0.00  0.00     0.085 C 
ATOM      9  O5*  A1 d          76.573  75.207  90.472  0.00  0.00    -0.135 OA
ENDROOT
BRANCH   1  10
ATOM     10  N9   A1 d          76.762  69.128  89.976  0.00  0.00    -0.250 N 
ATOM     11  C4   A1 d          77.205  68.551  88.792  0.00  0.00     0.173 A 
ATOM     12  C5   A1 d          77.894  67.405  89.164  0.00  0.00     0.148 A 
ATOM     13  N3   A1 d          77.020  68.972  87.523  0.00  0.00    -0.205 NA
ATOM     14  N7   A1 d          77.922  67.251  90.524  0.00  0.00    -0.220 NA
ATOM     15  C6   A1 d          78.419  66.640  88.121  0.00  0.00     0.173 A 
ATOM     16  C8   A1 d          77.234  68.287  90.970  0.00  0.00     0.186 A 
ATOM     17  N1   A1 d          78.256  67.019  86.832  0.00  0.00    -0.208 NA
ATOM     18  N6   A1 d          79.138  65.437  88.389  0.00  0.00    -0.078 NA
ATOM     19  C2   A1 d          77.569  68.158  86.619  0.00  0.00     0.202 A 
ENDBRANCH   1  10
TORSDOF 1
ENDMDL
MODEL 4
REMARK VINA RESULT:      -6.8     22.403     23.852
REMARK  1 active torsions:
REMARK  status: ('A' for Active; 'I' for Inactive)
REMARK    1  A    between atoms: C1*_11  and  N9_1 
ROOT
ATOM      1  C1*  A1 d          63.645  89.547  92.866  0.00  0.00     0.214 A 
ATOM      2  O4*  A1 d          64.496  88.978  93.827  0.00  0.00    -0.275 OA
ATOM      3  C4*  A1 d          64.758  89.906  94.855  0.00  0.00     0.204 A 
ATOM      4  C3*  A1 d          64.053  91.166  94.521  0.00  0.00     0.270 A 
ATOM      5  C2*  A1 d          63.339  90.916  93.251  0.00  0.00     0.276 A 
ATOM      6  O2*  A1 d          63.262  91.776  92.327  0.00  0.00    -0.279 OA
ATOM      7  O3*  A1 d          63.443  91.786  95.442  0.00  0.00    -0.280 OA
ATOM      8  C5*  A1 d          65.775  89.583  95.826  0.00  0.00     0.085 C 
ATOM      9  O5*  A1 d          66.763  89.160  96.706  0.00  0.00    -0.135 OA
ENDROOT
BRANCH   1  10
ATOM     10  N9   A1 d          63.192  88.838  91.769  0.00  0.00    -0.250 N 
ATOM     11  C4   A1 d          61.916  88.350  91.514  0.00  0.00     0.173 A 
ATOM     12  C5   A1 d          61.992  87.715  90.283  0.00  0.00     0.148 A 
ATOM     13  N3   A1 d          60.806  88.441  92.276  0.00  0.00    -0.205 NA
ATOM     14  N7   A1 d          63.250  87.801  89.746  0.00  0.00    -0.220 NA
ATOM     15  C6   A1 d          60.815  87.120  89.825  0.00  0.00     0.173 A 
ATOM     16  C8   A1 d          63.934  88.466  90.660  0.00  0.00     0.186 A 
ATOM     17  N1   A1 d          59.678  87.182  90.557  0.00  0.00    -0.208 NA
ATOM     18  N6   A1 d          60.782  86.433  88.575  0.00  0.00    -0.078 NA
ATOM     19  C2   A1 d          59.749  87.837  91.731  0.00  0.00     0.202 A 
ENDBRANCH   1  10
TORSDOF 1
ENDMDL
MODEL 5
REMARK VINA RESULT:      -6.6     21.788     23.353
REMARK  1 active torsions:
REMARK  status: ('A' for Active; 'I' for Inactive)
REMARK    1  A    between atoms: C1*_11  and  N9_1 
ROOT
ATOM      1  C1*  A1 d          63.137  88.964  92.065  0.00  0.00     0.214 A 
ATOM      2  O4*  A1 d          61.749  88.932  92.278  0.00  0.00    -0.275 OA
ATOM      3  C4*  A1 d          61.168  87.878  91.545  0.00  0.00     0.204 A 
ATOM      4  C3*  A1 d          62.249  87.202  90.788  0.00  0.00     0.270 A 
ATOM      5  C2*  A1 d          63.501  87.903  91.139  0.00  0.00     0.276 A 
ATOM      6  O2*  A1 d          64.406  88.157  90.293  0.00  0.00    -0.279 OA
ATOM      7  O3*  A1 d          62.260  85.936  90.741  0.00  0.00    -0.280 OA
ATOM      8  C5*  A1 d          59.730  87.809  91.466  0.00  0.00     0.085 C 
ATOM      9  O5*  A1 d          58.341  87.839  91.472  0.00  0.00    -0.135 OA
ENDROOT
BRANCH   1  10
ATOM     10  N9   A1 d          63.960  89.875  92.701  0.00  0.00    -0.250 N 
ATOM     11  C4   A1 d          64.955  89.641  93.642  0.00  0.00     0.173 A 
ATOM     12  C5   A1 d          65.477  90.887  93.959  0.00  0.00     0.148 A 
ATOM     13  N3   A1 d          65.358  88.469  94.176  0.00  0.00    -0.205 NA
ATOM     14  N7   A1 d          64.872  91.886  93.244  0.00  0.00    -0.220 NA
ATOM     15  C6   A1 d          66.493  90.901  94.917  0.00  0.00     0.173 A 
ATOM     16  C8   A1 d          63.973  91.248  92.515  0.00  0.00     0.186 A 
ATOM     17  N1   A1 d          66.927  89.751  95.483  0.00  0.00    -0.208 NA
ATOM     18  N6   A1 d          67.096  92.129  95.324  0.00  0.00    -0.078 NA
ATOM     19  C2   A1 d          66.332  88.614  95.075  0.00  0.00     0.202 A 
ENDBRANCH   1  10
TORSDOF 1
ENDMDL
MODEL 6
REMARK VINA RESULT:      -6.6      3.569      6.373
REMARK  1 active torsions:
REMARK  status: ('A' for Active; 'I' for Inactive)
REMARK    1  A    between atoms: C1*_11  and  N9_1 
ROOT
ATOM      1  C1*  A1 d          77.424  69.623  88.477  0.00  0.00     0.214 A 
ATOM      2  O4*  A1 d          78.338  70.689  88.506  0.00  0.00    -0.275 OA
ATOM      3  C4*  A1 d          77.664  71.900  88.766  0.00  0.00     0.204 A 
ATOM      4  C3*  A1 d          76.218  71.598  88.886  0.00  0.00     0.270 A 
ATOM      5  C2*  A1 d          76.083  70.137  88.707  0.00  0.00     0.276 A 
ATOM      6  O2*  A1 d          75.139  69.610  88.052  0.00  0.00    -0.279 OA
ATOM      7  O3*  A1 d          75.553  72.155  89.809  0.00  0.00    -0.280 OA
ATOM      8  C5*  A1 d          78.396  73.134  88.629  0.00  0.00     0.085 C 
ATOM      9  O5*  A1 d          79.204  74.254  88.476  0.00  0.00    -0.135 OA
ENDROOT
BRANCH   1  10
ATOM     10  N9   A1 d          77.825  68.313  88.284  0.00  0.00    -0.250 N 
ATOM     11  C4   A1 d          78.058  67.325  89.233  0.00  0.00     0.173 A 
ATOM     12  C5   A1 d          78.438  66.197  88.520  0.00  0.00     0.148 A 
ATOM     13  N3   A1 d          77.961  67.401  90.577  0.00  0.00    -0.205 NA
ATOM     14  N7   A1 d          78.432  66.427  87.169  0.00  0.00    -0.220 NA
ATOM     15  C6   A1 d          78.749  65.067  89.279  0.00  0.00     0.173 A 
ATOM     16  C8   A1 d          78.071  67.694  87.070  0.00  0.00     0.186 A 
ATOM     17  N1   A1 d          78.669  65.096  90.629  0.00  0.00    -0.208 NA
ATOM     18  N6   A1 d          79.159  63.855  88.648  0.00  0.00    -0.078 NA
ATOM     19  C2   A1 d          78.281  66.259  91.187  0.00  0.00     0.202 A 
ENDBRANCH   1  10
TORSDOF 1
ENDMDL
MODEL 7
REMARK VINA RESULT:      -6.6     12.493     14.185
REMARK  1 active torsions:
REMARK  status: ('A' for Active; 'I' for Inactive)
REMARK    1  A    between atoms: C1*_11  and  N9_1 
ROOT
ATOM      1  C1*  A1 d          82.266  80.474  96.311  0.00  0.00     0.214 A 
ATOM      2  O4*  A1 d          83.385  79.627  96.276  0.00  0.00    -0.275 OA
ATOM      3  C4*  A1 d          84.571  80.384  96.352  0.00  0.00     0.204 A 
ATOM      4  C3*  A1 d          84.193  81.817  96.412  0.00  0.00     0.270 A 
ATOM      5  C2*  A1 d          82.716  81.855  96.394  0.00  0.00     0.276 A 
ATOM      6  O2*  A1 d          82.060  82.720  95.744  0.00  0.00    -0.279 OA
ATOM      7  O3*  A1 d          84.805  82.575  97.221  0.00  0.00    -0.280 OA
ATOM      8  C5*  A1 d          85.827  79.715  96.121  0.00  0.00     0.085 C 
ATOM      9  O5*  A1 d          86.973  78.962  95.893  0.00  0.00    -0.135 OA
ENDROOT
BRANCH   1  10
ATOM     10  N9   A1 d          80.972  79.988  96.296  0.00  0.00    -0.250 N 
ATOM     11  C4   A1 d          80.069  79.880  97.346  0.00  0.00     0.173 A 
ATOM     12  C5   A1 d          78.917  79.331  96.802  0.00  0.00     0.148 A 
ATOM     13  N3   A1 d          80.235  80.214  98.643  0.00  0.00    -0.205 NA
ATOM     14  N7   A1 d          79.048  79.113  95.456  0.00  0.00    -0.220 NA
ATOM     15  C6   A1 d          77.864  79.108  97.692  0.00  0.00     0.173 A 
ATOM     16  C8   A1 d          80.282  79.507  95.194  0.00  0.00     0.186 A 
ATOM     17  N1   A1 d          77.986  79.423  99.002  0.00  0.00    -0.208 NA
ATOM     18  N6   A1 d          76.635  78.540  97.240  0.00  0.00    -0.078 NA
ATOM     19  C2   A1 d          79.161  79.954  99.390  0.00  0.00     0.202 A 
ENDBRANCH   1  10
TORSDOF 1
ENDMDL
MODEL 8
REMARK VINA RESULT:      -6.4     13.296     14.511
REMARK  1 active torsions:
REMARK  status: ('A' for Active; 'I' for Inactive)
REMARK    1  A    between atoms: C1*_11  and  N9_1 
ROOT
ATOM      1  C1*  A1 d          80.100  81.127  97.286  0.00  0.00     0.214 A 
ATOM      2  O4*  A1 d          80.487  80.417  96.138  0.00  0.00    -0.275 OA
ATOM      3  C4*  A1 d          81.658  80.977  95.590  0.00  0.00     0.204 A 
ATOM      4  C3*  A1 d          82.037  82.143  96.424  0.00  0.00     0.270 A 
ATOM      5  C2*  A1 d          81.036  82.219  97.508  0.00  0.00     0.276 A 
ATOM      6  O2*  A1 d          80.562  83.313  97.929  0.00  0.00    -0.279 OA
ATOM      7  O3*  A1 d          83.258  82.310  96.719  0.00  0.00    -0.280 OA
ATOM      8  C5*  A1 d          82.094  80.520  94.295  0.00  0.00     0.085 C 
ATOM      9  O5*  A1 d          82.423  79.994  93.051  0.00  0.00    -0.135 OA
ENDROOT
BRANCH   1  10
ATOM     10  N9   A1 d          79.005  80.762  98.047  0.00  0.00    -0.250 N 
ATOM     11  C4   A1 d          77.713  81.272  98.015  0.00  0.00     0.173 A 
ATOM     12  C5   A1 d          77.002  80.564  98.974  0.00  0.00     0.148 A 
ATOM     13  N3   A1 d          77.210  82.257  97.241  0.00  0.00    -0.205 NA
ATOM     14  N7   A1 d          77.782  79.620  99.587  0.00  0.00    -0.220 NA
ATOM     15  C6   A1 d          75.664  80.927  99.137  0.00  0.00     0.173 A 
ATOM     16  C8   A1 d          78.964  79.773  99.016  0.00  0.00     0.186 A 
ATOM     17  N1   A1 d          75.116  81.911  98.387  0.00  0.00    -0.208 NA
ATOM     18  N6   A1 d          74.842  80.270 100.101  0.00  0.00    -0.078 NA
ATOM     19  C2   A1 d          75.924  82.509  97.490  0.00  0.00     0.202 A 
ENDBRANCH   1  10
TORSDOF 1
ENDMDL
MODEL 9
REMARK VINA RESULT:      -6.3      1.230      2.332
REMARK  1 active torsions:
REMARK  status: ('A' for Active; 'I' for Inactive)
REMARK    1  A    between atoms: C1*_11  and  N9_1 
ROOT
ATOM      1  C1*  A1 d          76.440  69.548  89.880  0.00  0.00     0.214 A 
ATOM      2  O4*  A1 d          76.652  69.156  88.549  0.00  0.00    -0.275 OA
ATOM      3  C4*  A1 d          77.556  68.076  88.497  0.00  0.00     0.204 A 
ATOM      4  C3*  A1 d          77.976  67.769  89.886  0.00  0.00     0.270 A 
ATOM      5  C2*  A1 d          77.247  68.714  90.757  0.00  0.00     0.276 A 
ATOM      6  O2*  A1 d          77.777  69.269  91.762  0.00  0.00    -0.279 OA
ATOM      7  O3*  A1 d          78.054  66.556  90.245  0.00  0.00    -0.280 OA
ATOM      8  C5*  A1 d          78.061  67.666  87.211  0.00  0.00     0.085 C 
ATOM      9  O5*  A1 d          78.469  67.354  85.920  0.00  0.00    -0.135 OA
ENDROOT
BRANCH   1  10
ATOM     10  N9   A1 d          75.562  70.560  90.221  0.00  0.00    -0.250 N 
ATOM     11  C4   A1 d          75.795  71.928  90.294  0.00  0.00     0.173 A 
ATOM     12  C5   A1 d          74.590  72.498  90.679  0.00  0.00     0.148 A 
ATOM     13  N3   A1 d          76.939  72.606  90.061  0.00  0.00    -0.205 NA
ATOM     14  N7   A1 d          73.609  71.555  90.828  0.00  0.00    -0.220 NA
ATOM     15  C6   A1 d          74.592  73.885  90.841  0.00  0.00     0.173 A 
ATOM     16  C8   A1 d          74.225  70.418  90.555  0.00  0.00     0.186 A 
ATOM     17  N1   A1 d          75.715  74.607  90.623  0.00  0.00    -0.208 NA
ATOM     18  N6   A1 d          73.409  74.574  91.243  0.00  0.00    -0.078 NA
ATOM     19  C2   A1 d          76.812  73.921  90.247  0.00  0.00     0.202 A 
ENDBRANCH   1  10
TORSDOF 1
ENDMDL
MODEL 10
REMARK VINA RESULT:      -6.3      3.339      6.292
REMARK  1 active torsions:
REMARK  status: ('A' for Active; 'I' for Inactive)
REMARK    1  A    between atoms: C1*_11  and  N9_1 
ROOT
ATOM      1  C1*  A1 d          76.701  70.364  90.080  0.00  0.00     0.214 A 
ATOM      2  O4*  A1 d          75.371  70.627  90.445  0.00  0.00    -0.275 OA
ATOM      3  C4*  A1 d          75.133  72.016  90.448  0.00  0.00     0.204 A 
ATOM      4  C3*  A1 d          76.400  72.695  90.087  0.00  0.00     0.270 A 
ATOM      5  C2*  A1 d          77.390  71.624  89.848  0.00  0.00     0.276 A 
ATOM      6  O2*  A1 d          78.594  71.706  90.224  0.00  0.00    -0.279 OA
ATOM      7  O3*  A1 d          76.361  73.671  89.280  0.00  0.00    -0.280 OA
ATOM      8  C5*  A1 d          73.889  72.497  90.996  0.00  0.00     0.085 C 
ATOM      9  O5*  A1 d          72.656  72.840  91.537  0.00  0.00    -0.135 OA
ENDROOT
BRANCH   1  10
ATOM     10  N9   A1 d          77.192  69.077  89.956  0.00  0.00    -0.250 N 
ATOM     11  C4   A1 d          77.574  68.398  88.806  0.00  0.00     0.173 A 
ATOM     12  C5   A1 d          77.990  67.143  89.227  0.00  0.00     0.148 A 
ATOM     13  N3   A1 d          77.554  68.823  87.525  0.00  0.00    -0.205 NA
ATOM     14  N7   A1 d          77.907  67.013  90.587  0.00  0.00    -0.220 NA
ATOM     15  C6   A1 d          78.405  66.266  88.223  0.00  0.00     0.173 A 
ATOM     16  C8   A1 d          77.422  68.177  90.983  0.00  0.00     0.186 A 
ATOM     17  N1   A1 d          78.399  66.646  86.924  0.00  0.00    -0.208 NA
ATOM     18  N6   A1 d          78.845  64.947  88.543  0.00  0.00    -0.078 NA
ATOM     19  C2   A1 d          77.974  67.897  86.662  0.00  0.00     0.202 A 
ENDBRANCH   1  10
TORSDOF 1
ENDMDL
MODEL 11
REMARK VINA RESULT:      -6.2      3.310      6.279
REMARK  1 active torsions:
REMARK  status: ('A' for Active; 'I' for Inactive)
REMARK    1  A    between atoms: C1*_11  and  N9_1 
ROOT
ATOM      1  C1*  A1 d          76.080  71.415  89.464  0.00  0.00     0.214 A 
ATOM      2  O4*  A1 d          74.771  71.595  89.939  0.00  0.00    -0.275 OA
ATOM      3  C4*  A1 d          74.651  72.847  90.575  0.00  0.00     0.204 A 
ATOM      4  C3*  A1 d          75.978  73.508  90.530  0.00  0.00     0.270 A 
ATOM      5  C2*  A1 d          76.877  72.582  89.810  0.00  0.00     0.276 A 
ATOM      6  O2*  A1 d          78.077  72.385  90.155  0.00  0.00    -0.279 OA
ATOM      7  O3*  A1 d          76.035  74.742  90.252  0.00  0.00    -0.280 OA
ATOM      8  C5*  A1 d          73.444  73.129  91.310  0.00  0.00     0.085 C 
ATOM      9  O5*  A1 d          72.235  73.292  91.975  0.00  0.00    -0.135 OA
ENDROOT
BRANCH   1  10
ATOM     10  N9   A1 d          76.462  70.288  88.761  0.00  0.00    -0.250 N 
ATOM     11  C4   A1 d          77.121  69.155  89.222  0.00  0.00     0.173 A 
ATOM     12  C5   A1 d          77.265  68.325  88.120  0.00  0.00     0.148 A 
ATOM     13  N3   A1 d          77.559  68.878  90.468  0.00  0.00    -0.205 NA
ATOM     14  N7   A1 d          76.708  68.875  86.996  0.00  0.00    -0.220 NA
ATOM     15  C6   A1 d          77.930  67.117  88.344  0.00  0.00     0.173 A 
ATOM     16  C8   A1 d          76.249  70.042  87.414  0.00  0.00     0.186 A 
ATOM     17  N1   A1 d          78.390  66.798  89.575  0.00  0.00    -0.208 NA
ATOM     18  N6   A1 d          78.140  66.192  87.278  0.00  0.00    -0.078 NA
ATOM     19  C2   A1 d          78.174  67.698  90.554  0.00  0.00     0.202 A 
ENDBRANCH   1  10
TORSDOF 1
ENDMDL
MODEL 12
REMARK VINA RESULT:      -6.2      3.832      6.539
REMARK  1 active torsions:
REMARK  status: ('A' for Active; 'I' for Inactive)
REMARK    1  A    between atoms: C1*_11  and  N9_1 
ROOT
ATOM      1  C1*  A1 d          77.566  67.724  88.478  0.00  0.00     0.214 A 
ATOM      2  O4*  A1 d          76.913  68.593  89.367  0.00  0.00    -0.275 OA
ATOM      3  C4*  A1 d          76.160  69.545  88.651  0.00  0.00     0.204 A 
ATOM      4  C3*  A1 d          76.363  69.291  87.205  0.00  0.00     0.270 A 
ATOM      5  C2*  A1 d          77.258  68.118  87.113  0.00  0.00     0.276 A 
ATOM      6  O2*  A1 d          78.186  68.029  86.259  0.00  0.00    -0.279 OA
ATOM      7  O3*  A1 d          75.363  69.348  86.429  0.00  0.00    -0.280 OA
ATOM      8  C5*  A1 d          75.586  70.650  89.377  0.00  0.00     0.085 C 
ATOM      9  O5*  A1 d          75.073  71.660  90.182  0.00  0.00    -0.135 OA
ENDROOT
BRANCH   1  10
ATOM     10  N9   A1 d          78.340  66.665  88.917  0.00  0.00    -0.250 N 
ATOM     11  C4   A1 d          79.441  66.683  89.764  0.00  0.00     0.173 A 
ATOM     12  C5   A1 d          79.849  65.362  89.883  0.00  0.00     0.148 A 
ATOM     13  N3   A1 d          80.033  67.738  90.361  0.00  0.00    -0.205 NA
ATOM     14  N7   A1 d          79.042  64.517  89.168  0.00  0.00    -0.220 NA
ATOM     15  C6   A1 d          80.972  65.137  90.682  0.00  0.00     0.173 A 
ATOM     16  C8   A1 d          78.164  65.327  88.603  0.00  0.00     0.186 A 
ATOM     17  N1   A1 d          81.601  66.164  91.298  0.00  0.00    -0.208 NA
ATOM     18  N6   A1 d          81.483  63.817  90.867  0.00  0.00    -0.078 NA
ATOM     19  C2   A1 d          81.091  67.394  91.098  0.00  0.00     0.202 A 
ENDBRANCH   1  10
TORSDOF 1
ENDMDL
MODEL 13
REMARK VINA RESULT:      -5.8      3.816      6.802
REMARK  1 active torsions:
REMARK  status: ('A' for Active; 'I' for Inactive)
REMARK    1  A    between atoms: C1*_11  and  N9_1 
ROOT
ATOM      1  C1*  A1 d          77.579  68.422  89.289  0.00  0.00     0.214 A 
ATOM      2  O4*  A1 d          76.651  69.045  90.139  0.00  0.00    -0.275 OA
ATOM      3  C4*  A1 d          75.638  69.666  89.382  0.00  0.00     0.204 A 
ATOM      4  C3*  A1 d          75.946  69.451  87.948  0.00  0.00     0.270 A 
ATOM      5  C2*  A1 d          77.186  68.647  87.907  0.00  0.00     0.276 A 
ATOM      6  O2*  A1 d          78.108  68.850  87.067  0.00  0.00    -0.279 OA
ATOM      7  O3*  A1 d          75.003  69.144  87.160  0.00  0.00    -0.280 OA
ATOM      8  C5*  A1 d          74.709  70.534  90.062  0.00  0.00     0.085 C 
ATOM      9  O5*  A1 d          73.868  71.335  90.824  0.00  0.00    -0.135 OA
ENDROOT
BRANCH   1  10
ATOM     10  N9   A1 d          78.654  67.700  89.773  0.00  0.00    -0.250 N 
ATOM     11  C4   A1 d          79.019  66.388  89.495  0.00  0.00     0.173 A 
ATOM     12  C5   A1 d          80.169  66.150  90.234  0.00  0.00     0.148 A 
ATOM     13  N3   A1 d          78.410  65.492  88.690  0.00  0.00    -0.205 NA
ATOM     14  N7   A1 d          80.552  67.256  90.944  0.00  0.00    -0.220 NA
ATOM     15  C6   A1 d          80.712  64.868  90.127  0.00  0.00     0.173 A 
ATOM     16  C8   A1 d          79.626  68.152  90.652  0.00  0.00     0.186 A 
ATOM     17  N1   A1 d          80.134  63.935  89.336  0.00  0.00    -0.208 NA
ATOM     18  N6   A1 d          81.889  64.511  90.851  0.00  0.00    -0.078 NA
ATOM     19  C2   A1 d          79.024  64.308  88.671  0.00  0.00     0.202 A 
ENDBRANCH   1  10
TORSDOF 1
ENDMDL
MODEL 14
REMARK VINA RESULT:      -5.8     19.139     22.085
REMARK  1 active torsions:
REMARK  status: ('A' for Active; 'I' for Inactive)
REMARK    1  A    between atoms: C1*_11  and  N9_1 
ROOT
ATOM      1  C1*  A1 d          66.675  88.439  94.460  0.00  0.00     0.214 A 
ATOM      2  O4*  A1 d          67.342  87.870  93.363  0.00  0.00    -0.275 OA
ATOM      3  C4*  A1 d          68.202  86.841  93.796  0.00  0.00     0.204 A 
ATOM      4  C3*  A1 d          68.104  86.759  95.273  0.00  0.00     0.270 A 
ATOM      5  C2*  A1 d          67.118  87.782  95.680  0.00  0.00     0.276 A 
ATOM      6  O2*  A1 d          67.261  88.503  96.709  0.00  0.00    -0.279 OA
ATOM      7  O3*  A1 d          68.047  85.617  95.818  0.00  0.00    -0.280 OA
ATOM      8  C5*  A1 d          69.128  86.277  92.846  0.00  0.00     0.085 C 
ATOM      9  O5*  A1 d          69.964  85.803  91.842  0.00  0.00    -0.135 OA
ENDROOT
BRANCH   1  10
ATOM     10  N9   A1 d          65.737  89.444  94.313  0.00  0.00    -0.250 N 
ATOM     11  C4   A1 d          64.373  89.333  94.069  0.00  0.00     0.173 A 
ATOM     12  C5   A1 d          63.892  90.633  94.008  0.00  0.00     0.148 A 
ATOM     13  N3   A1 d          63.630  88.219  93.905  0.00  0.00    -0.205 NA
ATOM     14  N7   A1 d          64.886  91.551  94.226  0.00  0.00    -0.220 NA
ATOM     15  C6   A1 d          62.528  90.771  93.746  0.00  0.00     0.173 A 
ATOM     16  C8   A1 d          65.965  90.808  94.395  0.00  0.00     0.186 A 
ATOM     17  N1   A1 d          61.743  89.683  93.571  0.00  0.00    -0.208 NA
ATOM     18  N6   A1 d          61.929  92.063  93.654  0.00  0.00    -0.078 NA
ATOM     19  C2   A1 d          62.345  88.481  93.662  0.00  0.00     0.202 A 
ENDBRANCH   1  10
TORSDOF 1
ENDMDL
MODEL 15
REMARK VINA RESULT:      -5.8     12.054     13.330
REMARK  1 active torsions:
REMARK  status: ('A' for Active; 'I' for Inactive)
REMARK    1  A    between atoms: C1*_11  and  N9_1 
ROOT
ATOM      1  C1*  A1 d          82.366  79.149  95.948  0.00  0.00     0.214 A 
ATOM      2  O4*  A1 d          82.567  78.126  96.888  0.00  0.00    -0.275 OA
ATOM      3  C4*  A1 d          83.045  76.965  96.249  0.00  0.00     0.204 A 
ATOM      4  C3*  A1 d          83.132  77.249  94.797  0.00  0.00     0.270 A 
ATOM      5  C2*  A1 d          82.702  78.652  94.623  0.00  0.00     0.276 A 
ATOM      6  O2*  A1 d          81.979  79.034  93.658  0.00  0.00    -0.279 OA
ATOM      7  O3*  A1 d          84.149  76.847  94.156  0.00  0.00    -0.280 OA
ATOM      8  C5*  A1 d          83.115  75.743  97.011  0.00  0.00     0.085 C 
ATOM      9  O5*  A1 d          83.149  74.633  97.846  0.00  0.00    -0.135 OA
ENDROOT
BRANCH   1  10
ATOM     10  N9   A1 d          81.941  80.413  96.312  0.00  0.00    -0.250 N 
ATOM     11  C4   A1 d          80.764  80.786  96.950  0.00  0.00     0.173 A 
ATOM     12  C5   A1 d          80.825  82.166  97.082  0.00  0.00     0.148 A 
ATOM     13  N3   A1 d          79.741  80.009  97.362  0.00  0.00    -0.205 NA
ATOM     14  N7   A1 d          81.994  82.671  96.578  0.00  0.00    -0.220 NA
ATOM     15  C6   A1 d          79.722  82.774  97.685  0.00  0.00     0.173 A 
ATOM     16  C8   A1 d          82.626  81.603  96.124  0.00  0.00     0.186 A 
ATOM     17  N1   A1 d          78.671  82.036  98.111  0.00  0.00    -0.208 NA
ATOM     18  N6   A1 d          79.676  84.189  97.864  0.00  0.00    -0.078 NA
ATOM     19  C2   A1 d          78.750  80.705  97.922  0.00  0.00     0.202 A 
ENDBRANCH   1  10
TORSDOF 1
ENDMDL
MODEL 16
REMARK VINA RESULT:      -5.8     13.013     14.066
REMARK  1 active torsions:
REMARK  status: ('A' for Active; 'I' for Inactive)
REMARK    1  A    between atoms: C1*_11  and  N9_1 
ROOT
ATOM      1  C1*  A1 d          80.807  80.722  97.259  0.00  0.00     0.214 A 
ATOM      2  O4*  A1 d          81.690  79.791  96.688  0.00  0.00    -0.275 OA
ATOM      3  C4*  A1 d          82.880  80.432  96.287  0.00  0.00     0.204 A 
ATOM      4  C3*  A1 d          82.745  81.875  96.595  0.00  0.00     0.270 A 
ATOM      5  C2*  A1 d          81.417  82.042  97.223  0.00  0.00     0.276 A 
ATOM      6  O2*  A1 d          80.661  83.025  96.978  0.00  0.00    -0.279 OA
ATOM      7  O3*  A1 d          83.732  82.486  97.103  0.00  0.00    -0.280 OA
ATOM      8  C5*  A1 d          83.824  79.687  95.493  0.00  0.00     0.085 C 
ATOM      9  O5*  A1 d          84.661  78.868  94.743  0.00  0.00    -0.135 OA
ENDROOT
BRANCH   1  10
ATOM     10  N9   A1 d          79.579  80.353  97.777  0.00  0.00    -0.250 N 
ATOM     11  C4   A1 d          78.314  80.528  97.229  0.00  0.00     0.173 A 
ATOM     12  C5   A1 d          77.426  79.983  98.146  0.00  0.00     0.148 A 
ATOM     13  N3   A1 d          77.970  81.109  96.061  0.00  0.00    -0.205 NA
ATOM     14  N7   A1 d          78.077  79.456  99.229  0.00  0.00    -0.220 NA
ATOM     15  C6   A1 d          76.073  80.066  97.812  0.00  0.00     0.173 A 
ATOM     16  C8   A1 d          79.351  79.701  98.978  0.00  0.00     0.186 A 
ATOM     17  N1   A1 d          75.679  80.643  96.653  0.00  0.00    -0.208 NA
ATOM     18  N6   A1 d          75.072  79.546  98.686  0.00  0.00    -0.078 NA
ATOM     19  C2   A1 d          76.652  81.125  95.856  0.00  0.00     0.202 A 
ENDBRANCH   1  10
TORSDOF 1
ENDMDL
MODEL 17
REMARK VINA RESULT:      -5.7     12.605     13.978
REMARK  1 active torsions:
REMARK  status: ('A' for Active; 'I' for Inactive)
REMARK    1  A    between atoms: C1*_11  and  N9_1 
ROOT
ATOM      1  C1*  A1 d          82.752  80.657  95.971  0.00  0.00     0.214 A 
ATOM      2  O4*  A1 d          83.187  79.449  96.539  0.00  0.00    -0.275 OA
ATOM      3  C4*  A1 d          84.351  78.996  95.887  0.00  0.00     0.204 A 
ATOM      4  C3*  A1 d          84.673  79.962  94.809  0.00  0.00     0.270 A 
ATOM      5  C2*  A1 d          83.645  81.022  94.883  0.00  0.00     0.276 A 
ATOM      6  O2*  A1 d          83.126  81.547  93.856  0.00  0.00    -0.279 OA
ATOM      7  O3*  A1 d          85.881  80.305  94.638  0.00  0.00    -0.280 OA
ATOM      8  C5*  A1 d          84.832  77.670  96.185  0.00  0.00     0.085 C 
ATOM      9  O5*  A1 d          85.205  76.385  96.560  0.00  0.00    -0.135 OA
ENDROOT
BRANCH   1  10
ATOM     10  N9   A1 d          81.652  81.344  96.451  0.00  0.00    -0.250 N 
ATOM     11  C4   A1 d          80.325  81.252  96.052  0.00  0.00     0.173 A 
ATOM     12  C5   A1 d          79.626  82.150  96.846  0.00  0.00     0.148 A 
ATOM     13  N3   A1 d          79.781  80.476  95.091  0.00  0.00    -0.205 NA
ATOM     14  N7   A1 d          80.450  82.783  97.739  0.00  0.00    -0.220 NA
ATOM     15  C6   A1 d          78.254  82.246  96.603  0.00  0.00     0.173 A 
ATOM     16  C8   A1 d          81.644  82.285  97.469  0.00  0.00     0.186 A 
ATOM     17  N1   A1 d          77.666  81.491  95.648  0.00  0.00    -0.208 NA
ATOM     18  N6   A1 d          77.441  83.144  97.357  0.00  0.00    -0.078 NA
ATOM     19  C2   A1 d          78.467  80.657  94.956  0.00  0.00     0.202 A 
ENDBRANCH   1  10
TORSDOF 1
ENDMDL
MODEL 18
REMARK VINA RESULT:      -5.7     22.973     24.018
REMARK  1 active torsions:
REMARK  status: ('A' for Active; 'I' for Inactive)
REMARK    1  A    between atoms: C1*_11  and  N9_1 
ROOT
ATOM      1  C1*  A1 d          61.564  88.455  93.001  0.00  0.00     0.214 A 
ATOM      2  O4*  A1 d          61.837  87.959  91.716  0.00  0.00    -0.275 OA
ATOM      3  C4*  A1 d          60.636  87.764  91.005  0.00  0.00     0.204 A 
ATOM      4  C3*  A1 d          59.513  88.133  91.899  0.00  0.00     0.270 A 
ATOM      5  C2*  A1 d          60.124  88.580  93.168  0.00  0.00     0.276 A 
ATOM      6  O2*  A1 d          59.644  88.290  94.301  0.00  0.00    -0.279 OA
ATOM      7  O3*  A1 d          58.551  88.806  91.424  0.00  0.00    -0.280 OA
ATOM      8  C5*  A1 d          60.692  87.065  89.745  0.00  0.00     0.085 C 
ATOM      9  O5*  A1 d          60.871  86.393  88.542  0.00  0.00    -0.135 OA
ENDROOT
BRANCH   1  10
ATOM     10  N9   A1 d          62.567  88.777  93.896  0.00  0.00    -0.250 N 
ATOM     11  C4   A1 d          63.518  89.787  93.812  0.00  0.00     0.173 A 
ATOM     12  C5   A1 d          64.286  89.681  94.963  0.00  0.00     0.148 A 
ATOM     13  N3   A1 d          63.703  90.696  92.833  0.00  0.00    -0.205 NA
ATOM     14  N7   A1 d          63.847  88.667  95.773  0.00  0.00    -0.220 NA
ATOM     15  C6   A1 d          65.335  90.594  95.087  0.00  0.00     0.173 A 
ATOM     16  C8   A1 d          62.832  88.150  95.103  0.00  0.00     0.186 A 
ATOM     17  N1   A1 d          65.562  91.522  94.129  0.00  0.00    -0.208 NA
ATOM     18  N6   A1 d          66.193  90.570  96.227  0.00  0.00    -0.078 NA
ATOM     19  C2   A1 d          64.732  91.512  93.068  0.00  0.00     0.202 A 
ENDBRANCH   1  10
TORSDOF 1
ENDMDL
MODEL 19
REMARK VINA RESULT:      -5.6      4.203      7.375
REMARK  1 active torsions:
REMARK  status: ('A' for Active; 'I' for Inactive)
REMARK    1  A    between atoms: C1*_11  and  N9_1 
ROOT
ATOM      1  C1*  A1 d          78.245  67.942  89.599  0.00  0.00     0.214 A 
ATOM      2  O4*  A1 d          77.893  68.252  88.275  0.00  0.00    -0.275 OA
ATOM      3  C4*  A1 d          76.839  69.187  88.258  0.00  0.00     0.204 A 
ATOM      4  C3*  A1 d          76.468  69.480  89.664  0.00  0.00     0.270 A 
ATOM      5  C2*  A1 d          77.383  68.682  90.507  0.00  0.00     0.276 A 
ATOM      6  O2*  A1 d          77.006  68.091  91.560  0.00  0.00    -0.279 OA
ATOM      7  O3*  A1 d          76.236  70.680  89.996  0.00  0.00    -0.280 OA
ATOM      8  C5*  A1 d          76.197  69.473  86.999  0.00  0.00     0.085 C 
ATOM      9  O5*  A1 d          75.665  69.676  85.732  0.00  0.00    -0.135 OA
ENDROOT
BRANCH   1  10
ATOM     10  N9   A1 d          79.283  67.081  89.904  0.00  0.00    -0.250 N 
ATOM     11  C4   A1 d          79.449  65.752  89.533  0.00  0.00     0.173 A 
ATOM     12  C5   A1 d          80.651  65.349  90.097  0.00  0.00     0.148 A 
ATOM     13  N3   A1 d          78.636  64.971  88.791  0.00  0.00    -0.205 NA
ATOM     14  N7   A1 d          81.255  66.368  90.783  0.00  0.00    -0.220 NA
ATOM     15  C6   A1 d          81.019  64.021  89.872  0.00  0.00     0.173 A 
ATOM     16  C8   A1 d          80.410  67.376  90.653  0.00  0.00     0.186 A 
ATOM     17  N1   A1 d          80.234  63.199  89.138  0.00  0.00    -0.208 NA
ATOM     18  N6   A1 d          82.232  63.498  90.412  0.00  0.00    -0.078 NA
ATOM     19  C2   A1 d          79.097  63.728  88.647  0.00  0.00     0.202 A 
ENDBRANCH   1  10
TORSDOF 1
ENDMDL
MODEL 20
REMARK VINA RESULT:      -5.5     11.296     13.369
REMARK  1 active torsions:
REMARK  status: ('A' for Active; 'I' for Inactive)
REMARK    1  A    between atoms: C1*_11  and  N9_1 
ROOT
ATOM      1  C1*  A1 d          81.388  79.631  96.776  0.00  0.00     0.214 A 
ATOM      2  O4*  A1 d          82.788  79.529  96.746  0.00  0.00    -0.275 OA
ATOM      3  C4*  A1 d          83.339  80.609  96.027  0.00  0.00     0.204 A 
ATOM      4  C3*  A1 d          82.218  81.447  95.537  0.00  0.00     0.270 A 
ATOM      5  C2*  A1 d          80.979  80.812  96.032  0.00  0.00     0.276 A 
ATOM      6  O2*  A1 d          79.927  80.725  95.336  0.00  0.00    -0.279 OA
ATOM      7  O3*  A1 d          82.321  82.707  95.614  0.00  0.00    -0.280 OA
ATOM      8  C5*  A1 d          84.744  80.572  95.706  0.00  0.00     0.085 C 
ATOM      9  O5*  A1 d          86.106  80.433  95.467  0.00  0.00    -0.135 OA
ENDROOT
BRANCH   1  10
ATOM     10  N9   A1 d          80.597  78.723  97.455  0.00  0.00    -0.250 N 
ATOM     11  C4   A1 d          80.463  77.356  97.246  0.00  0.00     0.173 A 
ATOM     12  C5   A1 d          79.549  76.914  98.192  0.00  0.00     0.148 A 
ATOM     13  N3   A1 d          81.066  76.578  96.322  0.00  0.00    -0.205 NA
ATOM     14  N7   A1 d          79.122  77.936  98.997  0.00  0.00    -0.220 NA
ATOM     15  C6   A1 d          79.238  75.553  98.156  0.00  0.00     0.173 A 
ATOM     16  C8   A1 d          79.759  78.993  98.525  0.00  0.00     0.186 A 
ATOM     17  N1   A1 d          79.814  74.735  97.245  0.00  0.00    -0.208 NA
ATOM     18  N6   A1 d          78.304  74.994  99.078  0.00  0.00    -0.078 NA
ATOM     19  C2   A1 d          80.688  75.300  96.391  0.00  0.00     0.202 A 
ENDBRANCH   1  10
TORSDOF 1
ENDMDL
