MODEL 1
REMARK VINA RESULT:      -7.4      0.000      0.000
REMARK  9 active torsions:
REMARK  status: ('A' for Active; 'I' for Inactive)
REMARK       I    between atoms: N_2  and  C_14 
REMARK    1  A    between atoms: C_3  and  C_11 
REMARK    2  A    between atoms: C_14  and  C_16 
REMARK    3  A    between atoms: C_16  and  N_18 
REMARK    4  A    between atoms: C_19  and  N_18 
REMARK    5  A    between atoms: C_19  and  C_20 
REMARK    6  A    between atoms: C_19  and  C_28 
REMARK    7  A    between atoms: C_20  and  C_21 
REMARK    8  A    between atoms: C_21  and  C_22 
REMARK    9  A    between atoms: C_28  and  O_30 
ROOT
ATOM      1  O   UNK d   0      79.315  78.631  98.013  0.00  0.00    -0.232 OA
ATOM      2  C   UNK d   0      80.223  78.013  97.270  0.00  0.00    -0.000 C 
ATOM      3  C   UNK d   0      81.213  77.245  96.372  0.00  0.00     0.110 C 
ENDROOT
BRANCH   1   4
ATOM      4  C   UNK d   0      79.825  79.401  99.009  0.00  0.00     0.333 C 
ATOM      5  O   UNK d   0      80.781  79.113  99.718  0.00  0.00    -0.256 OA
BRANCH   4   6
ATOM      6  C   UNK d   0      78.980  80.635  99.123  0.00  0.00     0.187 C 
BRANCH   6   7
ATOM      7  N   UNK d   1      79.503  81.875  98.991  0.00  0.00    -0.232 NA
BRANCH   7   8
ATOM      8  C   UNK d   1      79.161  82.601  97.890  0.00  0.00     0.117 C 
ATOM      9  C   UNK d   1      79.255  84.143  97.858  0.00  0.00     0.057 C 
BRANCH   8  10
ATOM     10  C   UNK d   1      78.949  81.832  96.576  0.00  0.00     0.279 C 
ATOM     11  N   UNK d   1      80.145  81.405  95.965  0.00  0.00    -0.267 N 
ATOM     12  C   UNK d   1      81.441  81.690  96.336  0.00  0.00     0.083 A 
ATOM     13  C   UNK d   1      80.161  80.617  94.766  0.00  0.00     0.132 A 
ATOM     14  C   UNK d   1      82.788  81.446  95.917  0.00  0.00     0.018 A 
ATOM     15  C   UNK d   1      82.819  80.665  94.732  0.00  0.00     0.003 A 
ATOM     16  C   UNK d   1      83.948  81.870  96.533  0.00  0.00     0.002 A 
ATOM     17  C   UNK d   1      81.499  80.336  94.280  0.00  0.00     0.024 A 
ATOM     18  C   UNK d   1      84.014  80.297  94.148  0.00  0.00     0.000 A 
ATOM     19  C   UNK d   1      85.189  80.726  94.767  0.00  0.00     0.000 A 
ATOM     20  C   UNK d   1      85.157  81.499  95.941  0.00  0.00     0.000 A 
ATOM     21  O   UNK d   1      77.816  81.658  96.122  0.00  0.00    -0.265 OA
BRANCH  13  22
ATOM     22  C   UNK d   1      78.966  80.016  94.020  0.00  0.00     0.228 C 
ATOM     23  O   UNK d   1      78.842  78.757  94.119  0.00  0.00    -0.643 OA
ATOM     24  O   UNK d   1      78.367  80.809  93.228  0.00  0.00    -0.643 OA
ENDBRANCH  13  22
ENDBRANCH   8  10
ENDBRANCH   7   8
ENDBRANCH   6   7
BRANCH   6  25
ATOM     25  C   UNK d   0      77.673  80.569  99.687  0.00  0.00    -0.035 C 
BRANCH  25  26
ATOM     26  C   UNK d   0      76.257  80.528 100.274  0.00  0.00    -0.058 C 
BRANCH  26  27
ATOM     27  C   UNK d   0      74.942  80.531 100.819  0.00  0.00     0.042 A 
ATOM     28  C   UNK d   0      73.926  81.242 100.186  0.00  0.00     0.008 A 
ATOM     29  C   UNK d   0      72.641  81.245 100.725  0.00  0.00     0.001 A 
ATOM     30  C   UNK d   0      72.375  80.537 101.895  0.00  0.00     0.000 A 
ATOM     31  C   UNK d   0      73.392  79.826 102.528  0.00  0.00     0.001 A 
ATOM     32  C   UNK d   0      74.677  79.824 101.990  0.00  0.00     0.008 A 
ENDBRANCH  26  27
ENDBRANCH  25  26
ENDBRANCH   6  25
ENDBRANCH   4   6
ENDBRANCH   1   4
TORSDOF 9
ENDMDL
MODEL 2
REMARK VINA RESULT:      -6.9     11.468     14.028
REMARK  9 active torsions:
REMARK  status: ('A' for Active; 'I' for Inactive)
REMARK       I    between atoms: N_2  and  C_14 
REMARK    1  A    between atoms: C_3  and  C_11 
REMARK    2  A    between atoms: C_14  and  C_16 
REMARK    3  A    between atoms: C_16  and  N_18 
REMARK    4  A    between atoms: C_19  and  N_18 
REMARK    5  A    between atoms: C_19  and  C_20 
REMARK    6  A    between atoms: C_19  and  C_28 
REMARK    7  A    between atoms: C_20  and  C_21 
REMARK    8  A    between atoms: C_21  and  C_22 
REMARK    9  A    between atoms: C_28  and  O_30 
ROOT
ATOM      1  O   UNK d   0      73.138  72.438  91.258  0.00  0.00    -0.232 OA
ATOM      2  C   UNK d   0      72.458  73.567  91.400  0.00  0.00    -0.000 C 
ATOM      3  C   UNK d   0      71.592  74.832  91.565  0.00  0.00     0.110 C 
ENDROOT
BRANCH   1   4
ATOM      4  C   UNK d   0      74.450  72.600  90.945  0.00  0.00     0.333 C 
ATOM      5  O   UNK d   0      75.055  73.664  90.929  0.00  0.00    -0.256 OA
BRANCH   4   6
ATOM      6  C   UNK d   0      75.009  71.259  90.571  0.00  0.00     0.187 C 
BRANCH   6   7
ATOM      7  N   UNK d   1      74.916  70.770  89.314  0.00  0.00    -0.232 NA
BRANCH   7   8
ATOM      8  C   UNK d   1      76.032  70.797  88.532  0.00  0.00     0.117 C 
ATOM      9  C   UNK d   1      76.872  72.080  88.340  0.00  0.00     0.057 C 
BRANCH   8  10
ATOM     10  C   UNK d   1      76.602  69.446  88.071  0.00  0.00     0.279 C 
ATOM     11  N   UNK d   1      77.620  68.942  88.905  0.00  0.00    -0.267 N 
ATOM     12  C   UNK d   1      78.223  69.555  89.982  0.00  0.00     0.083 A 
ATOM     13  C   UNK d   1      78.238  67.665  88.683  0.00  0.00     0.132 A 
ATOM     14  C   UNK d   1      79.253  69.324  90.949  0.00  0.00     0.018 A 
ATOM     15  C   UNK d   1      79.871  68.063  90.743  0.00  0.00     0.003 A 
ATOM     16  C   UNK d   1      79.642  70.160  91.975  0.00  0.00     0.002 A 
ATOM     17  C   UNK d   1      79.299  67.368  89.627  0.00  0.00     0.024 A 
ATOM     18  C   UNK d   1      80.889  67.622  91.564  0.00  0.00     0.000 A 
ATOM     19  C   UNK d   1      81.286  68.466  92.602  0.00  0.00     0.000 A 
ATOM     20  C   UNK d   1      80.673  69.714  92.805  0.00  0.00     0.000 A 
ATOM     21  O   UNK d   1      76.196  68.909  87.039  0.00  0.00    -0.265 OA
BRANCH  13  22
ATOM     22  C   UNK d   1      77.863  66.608  87.641  0.00  0.00     0.228 C 
ATOM     23  O   UNK d   1      77.238  65.600  88.092  0.00  0.00    -0.643 OA
ATOM     24  O   UNK d   1      78.397  66.761  86.498  0.00  0.00    -0.643 OA
ENDBRANCH  13  22
ENDBRANCH   8  10
ENDBRANCH   7   8
ENDBRANCH   6   7
BRANCH   6  25
ATOM     25  C   UNK d   0      75.368  70.317  91.579  0.00  0.00    -0.035 C 
BRANCH  25  26
ATOM     26  C   UNK d   0      75.790  69.309  92.653  0.00  0.00    -0.058 C 
BRANCH  26  27
ATOM     27  C   UNK d   0      76.220  68.374  93.636  0.00  0.00     0.042 A 
ATOM     28  C   UNK d   0      75.578  68.313  94.871  0.00  0.00     0.008 A 
ATOM     29  C   UNK d   0      76.005  67.399  95.831  0.00  0.00     0.001 A 
ATOM     30  C   UNK d   0      77.073  66.547  95.556  0.00  0.00     0.000 A 
ATOM     31  C   UNK d   0      77.715  66.608  94.322  0.00  0.00     0.001 A 
ATOM     32  C   UNK d   0      77.289  67.523  93.361  0.00  0.00     0.008 A 
ENDBRANCH  26  27
ENDBRANCH  25  26
ENDBRANCH   6  25
ENDBRANCH   4   6
ENDBRANCH   1   4
TORSDOF 9
ENDMDL
MODEL 3
REMARK VINA RESULT:      -6.8      9.523     13.227
REMARK  9 active torsions:
REMARK  status: ('A' for Active; 'I' for Inactive)
REMARK       I    between atoms: N_2  and  C_14 
REMARK    1  A    between atoms: C_3  and  C_11 
REMARK    2  A    between atoms: C_14  and  C_16 
REMARK    3  A    between atoms: C_16  and  N_18 
REMARK    4  A    between atoms: C_19  and  N_18 
REMARK    5  A    between atoms: C_19  and  C_20 
REMARK    6  A    between atoms: C_19  and  C_28 
REMARK    7  A    between atoms: C_20  and  C_21 
REMARK    8  A    between atoms: C_21  and  C_22 
REMARK    9  A    between atoms: C_28  and  O_30 
ROOT
ATOM      1  O   UNK d   0      74.113  73.565  91.337  0.00  0.00    -0.232 OA
ATOM      2  C   UNK d   0      72.875  74.041  91.331  0.00  0.00    -0.000 C 
ATOM      3  C   UNK d   0      71.462  74.656  91.382  0.00  0.00     0.110 C 
ENDROOT
BRANCH   1   4
ATOM      4  C   UNK d   0      74.255  72.344  90.759  0.00  0.00     0.333 C 
ATOM      5  O   UNK d   0      73.439  71.432  90.804  0.00  0.00    -0.256 OA
BRANCH   4   6
ATOM      6  C   UNK d   0      75.604  72.292  90.106  0.00  0.00     0.187 C 
BRANCH   6   7
ATOM      7  N   UNK d   1      76.228  73.407  89.662  0.00  0.00    -0.232 NA
BRANCH   7   8
ATOM      8  C   UNK d   1      77.560  73.540  89.919  0.00  0.00     0.117 C 
ATOM      9  C   UNK d   1      78.597  73.758  88.795  0.00  0.00     0.057 C 
BRANCH   8  10
ATOM     10  C   UNK d   1      77.979  73.754  91.383  0.00  0.00     0.279 C 
ATOM     11  N   UNK d   1      78.836  72.754  91.883  0.00  0.00    -0.267 N 
ATOM     12  C   UNK d   1      79.234  71.586  91.270  0.00  0.00     0.083 A 
ATOM     13  C   UNK d   1      79.391  72.804  93.206  0.00  0.00     0.132 A 
ATOM     14  C   UNK d   1      80.024  70.420  91.523  0.00  0.00     0.018 A 
ATOM     15  C   UNK d   1      80.581  70.456  92.828  0.00  0.00     0.003 A 
ATOM     16  C   UNK d   1      80.266  69.367  90.665  0.00  0.00     0.002 A 
ATOM     17  C   UNK d   1      80.201  71.646  93.533  0.00  0.00     0.024 A 
ATOM     18  C   UNK d   1      81.390  69.438  93.291  0.00  0.00     0.000 A 
ATOM     19  C   UNK d   1      81.635  68.371  92.426  0.00  0.00     0.000 A 
ATOM     20  C   UNK d   1      81.083  68.336  91.133  0.00  0.00     0.000 A 
ATOM     21  O   UNK d   1      77.549  74.712  92.028  0.00  0.00    -0.265 OA
BRANCH  13  22
ATOM     22  C   UNK d   1      79.272  73.933  94.233  0.00  0.00     0.228 C 
ATOM     23  O   UNK d   1      80.109  74.878  94.099  0.00  0.00    -0.643 OA
ATOM     24  O   UNK d   1      78.498  73.696  95.211  0.00  0.00    -0.643 OA
ENDBRANCH  13  22
ENDBRANCH   8  10
ENDBRANCH   7   8
ENDBRANCH   6   7
BRANCH   6  25
ATOM     25  C   UNK d   0      76.136  71.055  89.638  0.00  0.00    -0.035 C 
BRANCH  25  26
ATOM     26  C   UNK d   0      76.732  69.725  89.163  0.00  0.00    -0.058 C 
BRANCH  26  27
ATOM     27  C   UNK d   0      77.311  68.491  88.754  0.00  0.00     0.042 A 
ATOM     28  C   UNK d   0      77.594  67.506  89.697  0.00  0.00     0.008 A 
ATOM     29  C   UNK d   0      78.164  66.301  89.292  0.00  0.00     0.001 A 
ATOM     30  C   UNK d   0      78.450  66.083  87.946  0.00  0.00     0.000 A 
ATOM     31  C   UNK d   0      78.167  67.068  87.004  0.00  0.00     0.001 A 
ATOM     32  C   UNK d   0      77.597  68.274  87.407  0.00  0.00     0.008 A 
ENDBRANCH  26  27
ENDBRANCH  25  26
ENDBRANCH   6  25
ENDBRANCH   4   6
ENDBRANCH   1   4
TORSDOF 9
ENDMDL
MODEL 4
REMARK VINA RESULT:      -6.7     15.918     19.794
REMARK  9 active torsions:
REMARK  status: ('A' for Active; 'I' for Inactive)
REMARK       I    between atoms: N_2  and  C_14 
REMARK    1  A    between atoms: C_3  and  C_11 
REMARK    2  A    between atoms: C_14  and  C_16 
REMARK    3  A    between atoms: C_16  and  N_18 
REMARK    4  A    between atoms: C_19  and  N_18 
REMARK    5  A    between atoms: C_19  and  C_20 
REMARK    6  A    between atoms: C_19  and  C_28 
REMARK    7  A    between atoms: C_20  and  C_21 
REMARK    8  A    between atoms: C_21  and  C_22 
REMARK    9  A    between atoms: C_28  and  O_30 
ROOT
ATOM      1  O   UNK d   0      63.994  91.179  93.497  0.00  0.00    -0.232 OA
ATOM      2  C   UNK d   0      63.003  90.865  94.320  0.00  0.00    -0.000 C 
ATOM      3  C   UNK d   0      61.910  90.498  95.343  0.00  0.00     0.110 C 
ENDROOT
BRANCH   1   4
ATOM      4  C   UNK d   0      63.690  91.078  92.177  0.00  0.00     0.333 C 
ATOM      5  O   UNK d   0      63.367  92.004  91.444  0.00  0.00    -0.256 OA
BRANCH   4   6
ATOM      6  C   UNK d   0      63.767  89.630  91.790  0.00  0.00     0.187 C 
BRANCH   6   7
ATOM      7  N   UNK d   1      64.947  89.011  91.565  0.00  0.00    -0.232 NA
BRANCH   7   8
ATOM      8  C   UNK d   1      65.222  87.878  92.271  0.00  0.00     0.117 C 
ATOM      9  C   UNK d   1      65.584  86.544  91.580  0.00  0.00     0.057 C 
BRANCH   8  10
ATOM     10  C   UNK d   1      65.442  88.027  93.785  0.00  0.00     0.279 C 
ATOM     11  N   UNK d   1      64.361  87.570  94.566  0.00  0.00    -0.267 N 
ATOM     12  C   UNK d   1      63.126  87.132  94.141  0.00  0.00     0.083 A 
ATOM     13  C   UNK d   1      64.395  87.563  96.001  0.00  0.00     0.132 A 
ATOM     14  C   UNK d   1      61.879  86.666  94.667  0.00  0.00     0.018 A 
ATOM     15  C   UNK d   1      61.898  86.650  96.086  0.00  0.00     0.003 A 
ATOM     16  C   UNK d   1      60.768  86.259  93.956  0.00  0.00     0.002 A 
ATOM     17  C   UNK d   1      63.156  87.105  96.603  0.00  0.00     0.024 A 
ATOM     18  C   UNK d   1      60.804  86.228  96.813  0.00  0.00     0.000 A 
ATOM     19  C   UNK d   1      59.679  85.818  96.097  0.00  0.00     0.000 A 
ATOM     20  C   UNK d   1      59.661  85.833  94.691  0.00  0.00     0.000 A 
ATOM     21  O   UNK d   1      66.474  88.535  94.226  0.00  0.00    -0.265 OA
BRANCH  13  22
ATOM     22  C   UNK d   1      65.572  87.911  96.916  0.00  0.00     0.228 C 
ATOM     23  O   UNK d   1      66.261  86.921  97.313  0.00  0.00    -0.643 OA
ATOM     24  O   UNK d   1      65.598  89.110  97.333  0.00  0.00    -0.643 OA
ENDBRANCH  13  22
ENDBRANCH   8  10
ENDBRANCH   7   8
ENDBRANCH   6   7
BRANCH   6  25
ATOM     25  C   UNK d   0      62.607  88.940  91.334  0.00  0.00    -0.035 C 
BRANCH  25  26
ATOM     26  C   UNK d   0      61.363  88.172  90.871  0.00  0.00    -0.058 C 
BRANCH  26  27
ATOM     27  C   UNK d   0      60.228  87.450  90.407  0.00  0.00     0.042 A 
ATOM     28  C   UNK d   0      60.375  86.479  89.419  0.00  0.00     0.008 A 
ATOM     29  C   UNK d   0      59.261  85.776  88.965  0.00  0.00     0.001 A 
ATOM     30  C   UNK d   0      58.002  86.045  89.500  0.00  0.00     0.000 A 
ATOM     31  C   UNK d   0      57.856  87.016  90.487  0.00  0.00     0.001 A 
ATOM     32  C   UNK d   0      58.970  87.720  90.941  0.00  0.00     0.008 A 
ENDBRANCH  26  27
ENDBRANCH  25  26
ENDBRANCH   6  25
ENDBRANCH   4   6
ENDBRANCH   1   4
TORSDOF 9
ENDMDL
MODEL 5
REMARK VINA RESULT:      -6.6      3.929      6.960
REMARK  9 active torsions:
REMARK  status: ('A' for Active; 'I' for Inactive)
REMARK       I    between atoms: N_2  and  C_14 
REMARK    1  A    between atoms: C_3  and  C_11 
REMARK    2  A    between atoms: C_14  and  C_16 
REMARK    3  A    between atoms: C_16  and  N_18 
REMARK    4  A    between atoms: C_19  and  N_18 
REMARK    5  A    between atoms: C_19  and  C_20 
REMARK    6  A    between atoms: C_19  and  C_28 
REMARK    7  A    between atoms: C_20  and  C_21 
REMARK    8  A    between atoms: C_21  and  C_22 
REMARK    9  A    between atoms: C_28  and  O_30 
ROOT
ATOM      1  O   UNK d   0      74.544  82.058  93.406  0.00  0.00    -0.232 OA
ATOM      2  C   UNK d   0      73.727  83.101  93.459  0.00  0.00    -0.000 C 
ATOM      3  C   UNK d   0      72.710  84.258  93.499  0.00  0.00     0.110 C 
ENDROOT
BRANCH   1   4
ATOM      4  C   UNK d   0      75.866  82.371  93.418  0.00  0.00     0.333 C 
ATOM      5  O   UNK d   0      76.333  83.500  93.494  0.00  0.00    -0.256 OA
BRANCH   4   6
ATOM      6  C   UNK d   0      76.647  81.099  93.265  0.00  0.00     0.187 C 
BRANCH   6   7
ATOM      7  N   UNK d   1      77.999  81.082  93.292  0.00  0.00    -0.232 NA
BRANCH   7   8
ATOM      8  C   UNK d   1      78.611  80.381  94.288  0.00  0.00     0.117 C 
ATOM      9  C   UNK d   1      79.243  78.992  94.047  0.00  0.00     0.057 C 
BRANCH   8  10
ATOM     10  C   UNK d   1      78.912  81.130  95.596  0.00  0.00     0.279 C 
ATOM     11  N   UNK d   1      80.285  81.342  95.829  0.00  0.00    -0.267 N 
ATOM     12  C   UNK d   1      81.357  80.869  95.104  0.00  0.00     0.083 A 
ATOM     13  C   UNK d   1      80.771  82.077  96.962  0.00  0.00     0.132 A 
ATOM     14  C   UNK d   1      82.788  80.884  95.112  0.00  0.00     0.018 A 
ATOM     15  C   UNK d   1      83.283  81.610  96.227  0.00  0.00     0.003 A 
ATOM     16  C   UNK d   1      83.639  80.304  94.194  0.00  0.00     0.002 A 
ATOM     17  C   UNK d   1      82.219  82.128  97.037  0.00  0.00     0.024 A 
ATOM     18  C   UNK d   1      84.639  81.765  96.436  0.00  0.00     0.000 A 
ATOM     19  C   UNK d   1      85.501  81.179  95.510  0.00  0.00     0.000 A 
ATOM     20  C   UNK d   1      85.010  80.460  94.406  0.00  0.00     0.000 A 
ATOM     21  O   UNK d   1      78.000  81.464  96.355  0.00  0.00    -0.265 OA
BRANCH  13  22
ATOM     22  C   UNK d   1      79.954  82.833  98.013  0.00  0.00     0.228 C 
ATOM     23  O   UNK d   1      79.782  84.069  97.781  0.00  0.00    -0.643 OA
ATOM     24  O   UNK d   1      79.723  82.190  99.085  0.00  0.00    -0.643 OA
ENDBRANCH  13  22
ENDBRANCH   8  10
ENDBRANCH   7   8
ENDBRANCH   6   7
BRANCH   6  25
ATOM     25  C   UNK d   0      76.021  79.919  92.768  0.00  0.00    -0.035 C 
BRANCH  25  26
ATOM     26  C   UNK d   0      75.363  78.657  92.200  0.00  0.00    -0.058 C 
BRANCH  26  27
ATOM     27  C   UNK d   0      74.751  77.468  91.711  0.00  0.00     0.042 A 
ATOM     28  C   UNK d   0      73.375  77.292  91.830  0.00  0.00     0.008 A 
ATOM     29  C   UNK d   0      72.781  76.126  91.353  0.00  0.00     0.001 A 
ATOM     30  C   UNK d   0      73.563  75.139  90.756  0.00  0.00     0.000 A 
ATOM     31  C   UNK d   0      74.940  75.316  90.637  0.00  0.00     0.001 A 
ATOM     32  C   UNK d   0      75.535  76.482  91.115  0.00  0.00     0.008 A 
ENDBRANCH  26  27
ENDBRANCH  25  26
ENDBRANCH   6  25
ENDBRANCH   4   6
ENDBRANCH   1   4
TORSDOF 9
ENDMDL
MODEL 6
REMARK VINA RESULT:      -6.6     14.203     17.924
REMARK  9 active torsions:
REMARK  status: ('A' for Active; 'I' for Inactive)
REMARK       I    between atoms: N_2  and  C_14 
REMARK    1  A    between atoms: C_3  and  C_11 
REMARK    2  A    between atoms: C_14  and  C_16 
REMARK    3  A    between atoms: C_16  and  N_18 
REMARK    4  A    between atoms: C_19  and  N_18 
REMARK    5  A    between atoms: C_19  and  C_20 
REMARK    6  A    between atoms: C_19  and  C_28 
REMARK    7  A    between atoms: C_20  and  C_21 
REMARK    8  A    between atoms: C_21  and  C_22 
REMARK    9  A    between atoms: C_28  and  O_30 
ROOT
ATOM      1  O   UNK d   0      59.882  87.216  90.491  0.00  0.00    -0.232 OA
ATOM      2  C   UNK d   0      58.808  87.891  90.879  0.00  0.00    -0.000 C 
ATOM      3  C   UNK d   0      57.512  88.603  91.313  0.00  0.00     0.110 C 
ENDROOT
BRANCH   1   4
ATOM      4  C   UNK d   0      60.989  87.977  90.291  0.00  0.00     0.333 C 
ATOM      5  O   UNK d   0      61.254  88.602  89.272  0.00  0.00    -0.256 OA
BRANCH   4   6
ATOM      6  C   UNK d   0      61.854  87.870  91.513  0.00  0.00     0.187 C 
BRANCH   6   7
ATOM      7  N   UNK d   1      62.086  88.930  92.319  0.00  0.00    -0.232 NA
BRANCH   7   8
ATOM      8  C   UNK d   1      63.333  89.481  92.309  0.00  0.00     0.117 C 
ATOM      9  C   UNK d   1      63.986  90.016  91.015  0.00  0.00     0.057 C 
BRANCH   8  10
ATOM     10  C   UNK d   1      63.965  89.821  93.669  0.00  0.00     0.279 C 
ATOM     11  N   UNK d   1      65.161  89.123  93.932  0.00  0.00    -0.267 N 
ATOM     12  C   UNK d   1      65.744  88.119  93.190  0.00  0.00     0.083 A 
ATOM     13  C   UNK d   1      65.939  89.344  95.118  0.00  0.00     0.132 A 
ATOM     14  C   UNK d   1      66.874  87.240  93.216  0.00  0.00     0.018 A 
ATOM     15  C   UNK d   1      67.654  87.450  94.383  0.00  0.00     0.003 A 
ATOM     16  C   UNK d   1      67.227  86.300  92.271  0.00  0.00     0.002 A 
ATOM     17  C   UNK d   1      67.100  88.480  95.212  0.00  0.00     0.024 A 
ATOM     18  C   UNK d   1      68.801  86.719  94.618  0.00  0.00     0.000 A 
ATOM     19  C   UNK d   1      69.161  85.766  93.665  0.00  0.00     0.000 A 
ATOM     20  C   UNK d   1      68.387  85.559  92.510  0.00  0.00     0.000 A 
ATOM     21  O   UNK d   1      63.420  90.615  94.437  0.00  0.00    -0.265 OA
BRANCH  13  22
ATOM     22  C   UNK d   1      65.713  90.396  96.207  0.00  0.00     0.228 C 
ATOM     23  O   UNK d   1      66.298  91.507  96.018  0.00  0.00    -0.643 OA
ATOM     24  O   UNK d   1      65.145  89.971  97.261  0.00  0.00    -0.643 OA
ENDBRANCH  13  22
ENDBRANCH   8  10
ENDBRANCH   7   8
ENDBRANCH   6   7
BRANCH   6  25
ATOM     25  C   UNK d   0      62.716  86.750  91.695  0.00  0.00    -0.035 C 
BRANCH  25  26
ATOM     26  C   UNK d   0      63.619  85.524  91.872  0.00  0.00    -0.058 C 
BRANCH  26  27
ATOM     27  C   UNK d   0      64.481  84.408  92.062  0.00  0.00     0.042 A 
ATOM     28  C   UNK d   0      65.023  83.749  90.961  0.00  0.00     0.008 A 
ATOM     29  C   UNK d   0      65.864  82.654  91.153  0.00  0.00     0.001 A 
ATOM     30  C   UNK d   0      66.162  82.221  92.443  0.00  0.00     0.000 A 
ATOM     31  C   UNK d   0      65.619  82.880  93.543  0.00  0.00     0.001 A 
ATOM     32  C   UNK d   0      64.777  83.974  93.353  0.00  0.00     0.008 A 
ENDBRANCH  26  27
ENDBRANCH  25  26
ENDBRANCH   6  25
ENDBRANCH   4   6
ENDBRANCH   1   4
TORSDOF 9
ENDMDL
MODEL 7
REMARK VINA RESULT:      -6.6     14.087     18.275
REMARK  9 active torsions:
REMARK  status: ('A' for Active; 'I' for Inactive)
REMARK       I    between atoms: N_2  and  C_14 
REMARK    1  A    between atoms: C_3  and  C_11 
REMARK    2  A    between atoms: C_14  and  C_16 
REMARK    3  A    between atoms: C_16  and  N_18 
REMARK    4  A    between atoms: C_19  and  N_18 
REMARK    5  A    between atoms: C_19  and  C_20 
REMARK    6  A    between atoms: C_19  and  C_28 
REMARK    7  A    between atoms: C_20  and  C_21 
REMARK    8  A    between atoms: C_21  and  C_22 
REMARK    9  A    between atoms: C_28  and  O_30 
ROOT
ATOM      1  O   UNK d   0      60.855  87.342  91.130  0.00  0.00    -0.232 OA
ATOM      2  C   UNK d   0      59.643  87.879  91.148  0.00  0.00    -0.000 C 
ATOM      3  C   UNK d   0      58.200  88.422  91.187  0.00  0.00     0.110 C 
ENDROOT
BRANCH   1   4
ATOM      4  C   UNK d   0      61.825  88.147  90.622  0.00  0.00     0.333 C 
ATOM      5  O   UNK d   0      61.964  88.442  89.442  0.00  0.00    -0.256 OA
BRANCH   4   6
ATOM      6  C   UNK d   0      62.723  88.562  91.750  0.00  0.00     0.187 C 
BRANCH   6   7
ATOM      7  N   UNK d   1      62.597  89.761  92.361  0.00  0.00    -0.232 NA
BRANCH   7   8
ATOM      8  C   UNK d   1      62.291  89.775  93.689  0.00  0.00     0.117 C 
ATOM      9  C   UNK d   1      61.145  88.922  94.278  0.00  0.00     0.057 C 
BRANCH   8  10
ATOM     10  C   UNK d   1      63.298  90.444  94.638  0.00  0.00     0.279 C 
ATOM     11  N   UNK d   1      64.159  89.536  95.288  0.00  0.00    -0.267 N 
ATOM     12  C   UNK d   1      64.124  88.159  95.261  0.00  0.00     0.083 A 
ATOM     13  C   UNK d   1      65.211  89.964  96.165  0.00  0.00     0.132 A 
ATOM     14  C   UNK d   1      64.802  87.026  95.815  0.00  0.00     0.018 A 
ATOM     15  C   UNK d   1      65.848  87.434  96.684  0.00  0.00     0.003 A 
ATOM     16  C   UNK d   1      64.540  85.693  95.578  0.00  0.00     0.002 A 
ATOM     17  C   UNK d   1      65.938  88.863  96.769  0.00  0.00     0.024 A 
ATOM     18  C   UNK d   1      66.646  86.510  97.327  0.00  0.00     0.000 A 
ATOM     19  C   UNK d   1      66.382  85.161  97.091  0.00  0.00     0.000 A 
ATOM     20  C   UNK d   1      65.346  84.758  96.230  0.00  0.00     0.000 A 
ATOM     21  O   UNK d   1      63.292  91.664  94.807  0.00  0.00    -0.265 OA
BRANCH  13  22
ATOM     22  C   UNK d   1      65.663  91.395  96.463  0.00  0.00     0.228 C 
ATOM     23  O   UNK d   1      64.947  92.029  97.297  0.00  0.00    -0.643 OA
ATOM     24  O   UNK d   1      66.568  91.848  95.694  0.00  0.00    -0.643 OA
ENDBRANCH  13  22
ENDBRANCH   8  10
ENDBRANCH   7   8
ENDBRANCH   6   7
BRANCH   6  25
ATOM     25  C   UNK d   0      63.935  87.858  92.007  0.00  0.00    -0.035 C 
BRANCH  25  26
ATOM     26  C   UNK d   0      65.220  87.075  92.302  0.00  0.00    -0.058 C 
BRANCH  26  27
ATOM     27  C   UNK d   0      66.399  86.341  92.614  0.00  0.00     0.042 A 
ATOM     28  C   UNK d   0      67.512  86.996  93.133  0.00  0.00     0.008 A 
ATOM     29  C   UNK d   0      68.665  86.273  93.434  0.00  0.00     0.001 A 
ATOM     30  C   UNK d   0      68.702  84.897  93.215  0.00  0.00     0.000 A 
ATOM     31  C   UNK d   0      67.588  84.243  92.696  0.00  0.00     0.001 A 
ATOM     32  C   UNK d   0      66.435  84.965  92.394  0.00  0.00     0.008 A 
ENDBRANCH  26  27
ENDBRANCH  25  26
ENDBRANCH   6  25
ENDBRANCH   4   6
ENDBRANCH   1   4
TORSDOF 9
ENDMDL
MODEL 8
REMARK VINA RESULT:      -6.6      3.613      6.719
REMARK  9 active torsions:
REMARK  status: ('A' for Active; 'I' for Inactive)
REMARK       I    between atoms: N_2  and  C_14 
REMARK    1  A    between atoms: C_3  and  C_11 
REMARK    2  A    between atoms: C_14  and  C_16 
REMARK    3  A    between atoms: C_16  and  N_18 
REMARK    4  A    between atoms: C_19  and  N_18 
REMARK    5  A    between atoms: C_19  and  C_20 
REMARK    6  A    between atoms: C_19  and  C_28 
REMARK    7  A    between atoms: C_20  and  C_21 
REMARK    8  A    between atoms: C_21  and  C_22 
REMARK    9  A    between atoms: C_28  and  O_30 
ROOT
ATOM      1  O   UNK d   0      78.589  79.674  99.628  0.00  0.00    -0.232 OA
ATOM      2  C   UNK d   0      77.473  80.314  99.303  0.00  0.00    -0.000 C 
ATOM      3  C   UNK d   0      76.131  80.988  98.957  0.00  0.00     0.110 C 
ENDROOT
BRANCH   1   4
ATOM      4  C   UNK d   0      79.722  80.203  99.097  0.00  0.00     0.333 C 
ATOM      5  O   UNK d   0      80.241  81.261  99.429  0.00  0.00    -0.256 OA
BRANCH   4   6
ATOM      6  C   UNK d   0      80.191  79.293  98.001  0.00  0.00     0.187 C 
BRANCH   6   7
ATOM      7  N   UNK d   1      80.027  79.602  96.695  0.00  0.00    -0.232 NA
BRANCH   7   8
ATOM      8  C   UNK d   1      81.047  79.319  95.837  0.00  0.00     0.117 C 
ATOM      9  C   UNK d   1      80.809  78.640  94.469  0.00  0.00     0.057 C 
BRANCH   8  10
ATOM     10  C   UNK d   1      82.417  79.950  96.136  0.00  0.00     0.279 C 
ATOM     11  N   UNK d   1      83.478  79.023  96.163  0.00  0.00    -0.267 N 
ATOM     12  C   UNK d   1      83.415  77.650  96.073  0.00  0.00     0.083 A 
ATOM     13  C   UNK d   1      84.843  79.420  96.363  0.00  0.00     0.132 A 
ATOM     14  C   UNK d   1      84.268  76.501  96.104  0.00  0.00     0.018 A 
ATOM     15  C   UNK d   1      85.622  76.878  96.298  0.00  0.00     0.003 A 
ATOM     16  C   UNK d   1      83.900  75.179  95.962  0.00  0.00     0.002 A 
ATOM     17  C   UNK d   1      85.765  78.300  96.411  0.00  0.00     0.024 A 
ATOM     18  C   UNK d   1      86.628  75.934  96.353  0.00  0.00     0.000 A 
ATOM     19  C   UNK d   1      86.259  74.596  96.211  0.00  0.00     0.000 A 
ATOM     20  C   UNK d   1      84.916  74.224  96.018  0.00  0.00     0.000 A 
ATOM     21  O   UNK d   1      82.520  81.158  96.358  0.00  0.00    -0.265 OA
BRANCH  13  22
ATOM     22  C   UNK d   1      85.405  80.840  96.459  0.00  0.00     0.228 C 
ATOM     23  O   UNK d   1      85.852  81.322  95.374  0.00  0.00    -0.643 OA
ATOM     24  O   UNK d   1      85.549  81.287  97.640  0.00  0.00    -0.643 OA
ENDBRANCH  13  22
ENDBRANCH   8  10
ENDBRANCH   7   8
ENDBRANCH   6   7
BRANCH   6  25
ATOM     25  C   UNK d   0      80.531  77.937  98.280  0.00  0.00    -0.035 C 
BRANCH  25  26
ATOM     26  C   UNK d   0      80.909  76.475  98.545  0.00  0.00    -0.058 C 
BRANCH  26  27
ATOM     27  C   UNK d   0      81.227  75.114  98.815  0.00  0.00     0.042 A 
ATOM     28  C   UNK d   0      81.660  74.738 100.084  0.00  0.00     0.008 A 
ATOM     29  C   UNK d   0      81.974  73.405 100.343  0.00  0.00     0.001 A 
ATOM     30  C   UNK d   0      81.853  72.452  99.334  0.00  0.00     0.000 A 
ATOM     31  C   UNK d   0      81.419  72.829  98.065  0.00  0.00     0.001 A 
ATOM     32  C   UNK d   0      81.107  74.162  97.805  0.00  0.00     0.008 A 
ENDBRANCH  26  27
ENDBRANCH  25  26
ENDBRANCH   6  25
ENDBRANCH   4   6
ENDBRANCH   1   4
TORSDOF 9
ENDMDL
MODEL 9
REMARK VINA RESULT:      -6.6     14.765     18.706
REMARK  9 active torsions:
REMARK  status: ('A' for Active; 'I' for Inactive)
REMARK       I    between atoms: N_2  and  C_14 
REMARK    1  A    between atoms: C_3  and  C_11 
REMARK    2  A    between atoms: C_14  and  C_16 
REMARK    3  A    between atoms: C_16  and  N_18 
REMARK    4  A    between atoms: C_19  and  N_18 
REMARK    5  A    between atoms: C_19  and  C_20 
REMARK    6  A    between atoms: C_19  and  C_28 
REMARK    7  A    between atoms: C_20  and  C_21 
REMARK    8  A    between atoms: C_21  and  C_22 
REMARK    9  A    between atoms: C_28  and  O_30 
ROOT
ATOM      1  O   UNK d   0      59.288  87.060  92.177  0.00  0.00    -0.232 OA
ATOM      2  C   UNK d   0      58.365  86.912  91.236  0.00  0.00    -0.000 C 
ATOM      3  C   UNK d   0      57.319  86.657  90.134  0.00  0.00     0.110 C 
ENDROOT
BRANCH   1   4
ATOM      4  C   UNK d   0      59.522  88.346  92.547  0.00  0.00     0.333 C 
ATOM      5  O   UNK d   0      58.694  89.248  92.562  0.00  0.00    -0.256 OA
BRANCH   4   6
ATOM      6  C   UNK d   0      60.979  88.477  92.880  0.00  0.00     0.187 C 
BRANCH   6   7
ATOM      7  N   UNK d   1      61.517  89.649  93.286  0.00  0.00    -0.232 NA
BRANCH   7   8
ATOM      8  C   UNK d   1      61.945  89.745  94.577  0.00  0.00     0.117 C 
ATOM      9  C   UNK d   1      61.252  88.987  95.732  0.00  0.00     0.057 C 
BRANCH   8  10
ATOM     10  C   UNK d   1      63.313  90.403  94.820  0.00  0.00     0.279 C 
ATOM     11  N   UNK d   1      64.377  89.484  94.921  0.00  0.00    -0.267 N 
ATOM     12  C   UNK d   1      64.317  88.108  94.946  0.00  0.00     0.083 A 
ATOM     13  C   UNK d   1      65.741  89.899  95.085  0.00  0.00     0.132 A 
ATOM     14  C   UNK d   1      65.173  86.967  95.071  0.00  0.00     0.018 A 
ATOM     15  C   UNK d   1      66.527  87.362  95.230  0.00  0.00     0.003 A 
ATOM     16  C   UNK d   1      64.808  85.637  95.040  0.00  0.00     0.002 A 
ATOM     17  C   UNK d   1      66.666  88.790  95.223  0.00  0.00     0.024 A 
ATOM     18  C   UNK d   1      67.535  86.429  95.361  0.00  0.00     0.000 A 
ATOM     19  C   UNK d   1      67.169  85.083  95.332  0.00  0.00     0.000 A 
ATOM     20  C   UNK d   1      65.828  84.692  95.173  0.00  0.00     0.000 A 
ATOM     21  O   UNK d   1      63.413  91.625  94.940  0.00  0.00    -0.265 OA
BRANCH  13  22
ATOM     22  C   UNK d   1      66.300  91.324  95.062  0.00  0.00     0.228 C 
ATOM     23  O   UNK d   1      66.458  91.863  96.200  0.00  0.00    -0.643 OA
ATOM     24  O   UNK d   1      66.343  91.870  93.915  0.00  0.00    -0.643 OA
ENDBRANCH  13  22
ENDBRANCH   8  10
ENDBRANCH   7   8
ENDBRANCH   6   7
BRANCH   6  25
ATOM     25  C   UNK d   0      61.907  87.474  92.479  0.00  0.00    -0.035 C 
BRANCH  25  26
ATOM     26  C   UNK d   0      62.895  86.398  92.012  0.00  0.00    -0.058 C 
BRANCH  26  27
ATOM     27  C   UNK d   0      63.829  85.400  91.615  0.00  0.00     0.042 A 
ATOM     28  C   UNK d   0      63.385  84.125  91.275  0.00  0.00     0.008 A 
ATOM     29  C   UNK d   0      64.304  83.150  90.890  0.00  0.00     0.001 A 
ATOM     30  C   UNK d   0      65.663  83.452  90.846  0.00  0.00     0.000 A 
ATOM     31  C   UNK d   0      66.106  84.728  91.187  0.00  0.00     0.001 A 
ATOM     32  C   UNK d   0      65.188  85.703  91.572  0.00  0.00     0.008 A 
ENDBRANCH  26  27
ENDBRANCH  25  26
ENDBRANCH   6  25
ENDBRANCH   4   6
ENDBRANCH   1   4
TORSDOF 9
ENDMDL
MODEL 10
REMARK VINA RESULT:      -6.6     29.461     32.131
REMARK  9 active torsions:
REMARK  status: ('A' for Active; 'I' for Inactive)
REMARK       I    between atoms: N_2  and  C_14 
REMARK    1  A    between atoms: C_3  and  C_11 
REMARK    2  A    between atoms: C_14  and  C_16 
REMARK    3  A    between atoms: C_16  and  N_18 
REMARK    4  A    between atoms: C_19  and  N_18 
REMARK    5  A    between atoms: C_19  and  C_20 
REMARK    6  A    between atoms: C_19  and  C_28 
REMARK    7  A    between atoms: C_20  and  C_21 
REMARK    8  A    between atoms: C_21  and  C_22 
REMARK    9  A    between atoms: C_28  and  O_30 
ROOT
ATOM      1  O   UNK d   0      59.827  70.624  74.614  0.00  0.00    -0.232 OA
ATOM      2  C   UNK d   0      60.377  70.855  73.430  0.00  0.00    -0.000 C 
ATOM      3  C   UNK d   0      61.047  71.201  72.085  0.00  0.00     0.110 C 
ENDROOT
BRANCH   1   4
ATOM      4  C   UNK d   0      58.941  69.595  74.638  0.00  0.00     0.333 C 
ATOM      5  O   UNK d   0      58.855  68.705  73.801  0.00  0.00    -0.256 OA
BRANCH   4   6
ATOM      6  C   UNK d   0      58.053  69.771  75.834  0.00  0.00     0.187 C 
BRANCH   6   7
ATOM      7  N   UNK d   1      58.087  70.892  76.591  0.00  0.00    -0.232 NA
BRANCH   7   8
ATOM      8  C   UNK d   1      57.098  71.813  76.415  0.00  0.00     0.117 C 
ATOM      9  C   UNK d   1      57.132  72.849  75.269  0.00  0.00     0.057 C 
BRANCH   8  10
ATOM     10  C   UNK d   1      55.800  71.616  77.215  0.00  0.00     0.279 C 
ATOM     11  N   UNK d   1      55.944  71.838  78.599  0.00  0.00    -0.267 N 
ATOM     12  C   UNK d   1      57.099  72.086  79.308  0.00  0.00     0.083 A 
ATOM     13  C   UNK d   1      54.837  71.766  79.511  0.00  0.00     0.132 A 
ATOM     14  C   UNK d   1      57.544  72.304  80.651  0.00  0.00     0.018 A 
ATOM     15  C   UNK d   1      56.460  72.240  81.564  0.00  0.00     0.003 A 
ATOM     16  C   UNK d   1      58.832  72.558  81.077  0.00  0.00     0.002 A 
ATOM     17  C   UNK d   1      55.220  71.974  80.895  0.00  0.00     0.024 A 
ATOM     18  C   UNK d   1      56.651  72.429  82.918  0.00  0.00     0.000 A 
ATOM     19  C   UNK d   1      57.952  72.685  83.352  0.00  0.00     0.000 A 
ATOM     20  C   UNK d   1      59.025  72.749  82.446  0.00  0.00     0.000 A 
ATOM     21  O   UNK d   1      54.761  71.263  76.654  0.00  0.00    -0.265 OA
BRANCH  13  22
ATOM     22  C   UNK d   1      53.356  71.570  79.178  0.00  0.00     0.228 C 
ATOM     23  O   UNK d   1      52.713  72.632  78.917  0.00  0.00    -0.643 OA
ATOM     24  O   UNK d   1      52.901  70.405  79.402  0.00  0.00    -0.643 OA
ENDBRANCH  13  22
ENDBRANCH   8  10
ENDBRANCH   7   8
ENDBRANCH   6   7
BRANCH   6  25
ATOM     25  C   UNK d   0      57.380  68.655  76.409  0.00  0.00    -0.035 C 
BRANCH  25  26
ATOM     26  C   UNK d   0      56.676  67.458  77.058  0.00  0.00    -0.058 C 
BRANCH  26  27
ATOM     27  C   UNK d   0      56.016  66.331  77.624  0.00  0.00     0.042 A 
ATOM     28  C   UNK d   0      56.035  66.129  79.002  0.00  0.00     0.008 A 
ATOM     29  C   UNK d   0      55.390  65.023  79.550  0.00  0.00     0.001 A 
ATOM     30  C   UNK d   0      54.726  64.121  78.721  0.00  0.00     0.000 A 
ATOM     31  C   UNK d   0      54.708  64.323  77.343  0.00  0.00     0.001 A 
ATOM     32  C   UNK d   0      55.353  65.429  76.794  0.00  0.00     0.008 A 
ENDBRANCH  26  27
ENDBRANCH  25  26
ENDBRANCH   6  25
ENDBRANCH   4   6
ENDBRANCH   1   4
TORSDOF 9
ENDMDL
MODEL 11
REMARK VINA RESULT:      -6.5      3.744      7.377
REMARK  9 active torsions:
REMARK  status: ('A' for Active; 'I' for Inactive)
REMARK       I    between atoms: N_2  and  C_14 
REMARK    1  A    between atoms: C_3  and  C_11 
REMARK    2  A    between atoms: C_14  and  C_16 
REMARK    3  A    between atoms: C_16  and  N_18 
REMARK    4  A    between atoms: C_19  and  N_18 
REMARK    5  A    between atoms: C_19  and  C_20 
REMARK    6  A    between atoms: C_19  and  C_28 
REMARK    7  A    between atoms: C_20  and  C_21 
REMARK    8  A    between atoms: C_21  and  C_22 
REMARK    9  A    between atoms: C_28  and  O_30 
ROOT
ATOM      1  O   UNK d   0      80.859  76.432  97.304  0.00  0.00    -0.232 OA
ATOM      2  C   UNK d   0      81.650  75.555  97.907  0.00  0.00    -0.000 C 
ATOM      3  C   UNK d   0      82.502  74.477  98.606  0.00  0.00     0.110 C 
ENDROOT
BRANCH   1   4
ATOM      4  C   UNK d   0      81.324  77.709  97.301  0.00  0.00     0.333 C 
ATOM      5  O   UNK d   0      81.257  78.496  98.236  0.00  0.00    -0.256 OA
BRANCH   4   6
ATOM      6  C   UNK d   0      81.880  77.999  95.938  0.00  0.00     0.187 C 
BRANCH   6   7
ATOM      7  N   UNK d   1      82.830  78.939  95.739  0.00  0.00    -0.232 NA
BRANCH   7   8
ATOM      8  C   UNK d   1      82.443  80.144  95.233  0.00  0.00     0.117 C 
ATOM      9  C   UNK d   1      82.458  80.445  93.718  0.00  0.00     0.057 C 
BRANCH   8  10
ATOM     10  C   UNK d   1      81.717  81.108  96.186  0.00  0.00     0.279 C 
ATOM     11  N   UNK d   1      80.329  81.197  95.957  0.00  0.00    -0.267 N 
ATOM     12  C   UNK d   1      79.593  80.631  94.939  0.00  0.00     0.083 A 
ATOM     13  C   UNK d   1      79.462  81.994  96.779  0.00  0.00     0.132 A 
ATOM     14  C   UNK d   1      78.250  80.574  94.448  0.00  0.00     0.018 A 
ATOM     15  C   UNK d   1      77.380  81.355  95.253  0.00  0.00     0.003 A 
ATOM     16  C   UNK d   1      77.786  79.871  93.355  0.00  0.00     0.002 A 
ATOM     17  C   UNK d   1      78.081  81.986  96.333  0.00  0.00     0.024 A 
ATOM     18  C   UNK d   1      76.031  81.442  94.973  0.00  0.00     0.000 A 
ATOM     19  C   UNK d   1      75.559  80.734  93.868  0.00  0.00     0.000 A 
ATOM     20  C   UNK d   1      76.422  79.960  93.071  0.00  0.00     0.000 A 
ATOM     21  O   UNK d   1      82.342  81.747  97.034  0.00  0.00    -0.265 OA
BRANCH  13  22
ATOM     22  C   UNK d   1      79.818  82.760  98.055  0.00  0.00     0.228 C 
ATOM     23  O   UNK d   1      79.751  82.086  99.129  0.00  0.00    -0.643 OA
ATOM     24  O   UNK d   1      79.934  84.017  97.917  0.00  0.00    -0.643 OA
ENDBRANCH  13  22
ENDBRANCH   8  10
ENDBRANCH   7   8
ENDBRANCH   6   7
BRANCH   6  25
ATOM     25  C   UNK d   0      81.211  77.534  94.769  0.00  0.00    -0.035 C 
BRANCH  25  26
ATOM     26  C   UNK d   0      80.505  76.999  93.517  0.00  0.00    -0.058 C 
BRANCH  26  27
ATOM     27  C   UNK d   0      79.856  76.540  92.337  0.00  0.00     0.042 A 
ATOM     28  C   UNK d   0      80.607  76.049  91.272  0.00  0.00     0.008 A 
ATOM     29  C   UNK d   0      79.967  75.603  90.118  0.00  0.00     0.001 A 
ATOM     30  C   UNK d   0      78.577  75.648  90.030  0.00  0.00     0.000 A 
ATOM     31  C   UNK d   0      77.826  76.139  91.096  0.00  0.00     0.001 A 
ATOM     32  C   UNK d   0      78.466  76.586  92.250  0.00  0.00     0.008 A 
ENDBRANCH  26  27
ENDBRANCH  25  26
ENDBRANCH   6  25
ENDBRANCH   4   6
ENDBRANCH   1   4
TORSDOF 9
ENDMDL
MODEL 12
REMARK VINA RESULT:      -6.5     10.627     14.402
REMARK  9 active torsions:
REMARK  status: ('A' for Active; 'I' for Inactive)
REMARK       I    between atoms: N_2  and  C_14 
REMARK    1  A    between atoms: C_3  and  C_11 
REMARK    2  A    between atoms: C_14  and  C_16 
REMARK    3  A    between atoms: C_16  and  N_18 
REMARK    4  A    between atoms: C_19  and  N_18 
REMARK    5  A    between atoms: C_19  and  C_20 
REMARK    6  A    between atoms: C_19  and  C_28 
REMARK    7  A    between atoms: C_20  and  C_21 
REMARK    8  A    between atoms: C_21  and  C_22 
REMARK    9  A    between atoms: C_28  and  O_30 
ROOT
ATOM      1  O   UNK d   0      66.362  69.848 101.353  0.00  0.00    -0.232 OA
ATOM      2  C   UNK d   0      65.068  70.136 101.364  0.00  0.00    -0.000 C 
ATOM      3  C   UNK d   0      63.547  70.385 101.391  0.00  0.00     0.110 C 
ENDROOT
BRANCH   1   4
ATOM      4  C   UNK d   0      67.164  70.850 100.908  0.00  0.00     0.333 C 
ATOM      5  O   UNK d   0      67.086  71.397  99.815  0.00  0.00    -0.256 OA
BRANCH   4   6
ATOM      6  C   UNK d   0      68.192  71.128 101.965  0.00  0.00     0.187 C 
BRANCH   6   7
ATOM      7  N   UNK d   1      67.851  71.574 103.195  0.00  0.00    -0.232 NA
BRANCH   7   8
ATOM      8  C   UNK d   1      67.488  72.882 103.324  0.00  0.00     0.117 C 
ATOM      9  C   UNK d   1      66.112  73.405 102.855  0.00  0.00     0.057 C 
BRANCH   8  10
ATOM     10  C   UNK d   1      68.372  73.774 104.210  0.00  0.00     0.279 C 
ATOM     11  N   UNK d   1      69.241  74.615 103.486  0.00  0.00    -0.267 N 
ATOM     12  C   UNK d   1      69.465  74.643 102.127  0.00  0.00     0.083 A 
ATOM     13  C   UNK d   1      70.102  75.569 104.125  0.00  0.00     0.132 A 
ATOM     14  C   UNK d   1      70.268  75.320 101.154  0.00  0.00     0.018 A 
ATOM     15  C   UNK d   1      71.124  76.269 101.772  0.00  0.00     0.003 A 
ATOM     16  C   UNK d   1      70.262  75.137  99.787  0.00  0.00     0.002 A 
ATOM     17  C   UNK d   1      70.951  76.290 103.195  0.00  0.00     0.024 A 
ATOM     18  C   UNK d   1      71.985  77.049 101.027  0.00  0.00     0.000 A 
ATOM     19  C   UNK d   1      71.982  76.866  99.644  0.00  0.00     0.000 A 
ATOM     20  C   UNK d   1      71.133  75.925  99.033  0.00  0.00     0.000 A 
ATOM     21  O   UNK d   1      68.312  73.700 105.439  0.00  0.00    -0.265 OA
BRANCH  13  22
ATOM     22  C   UNK d   1      70.164  75.932 105.611  0.00  0.00     0.228 C 
ATOM     23  O   UNK d   1      69.288  76.761 106.004  0.00  0.00    -0.643 OA
ATOM     24  O   UNK d   1      71.201  75.527 106.224  0.00  0.00    -0.643 OA
ENDBRANCH  13  22
ENDBRANCH   8  10
ENDBRANCH   7   8
ENDBRANCH   6   7
BRANCH   6  25
ATOM     25  C   UNK d   0      69.570  71.244 101.622  0.00  0.00    -0.035 C 
BRANCH  25  26
ATOM     26  C   UNK d   0      71.047  71.405 101.242  0.00  0.00    -0.058 C 
BRANCH  26  27
ATOM     27  C   UNK d   0      72.411  71.594 100.882  0.00  0.00     0.042 A 
ATOM     28  C   UNK d   0      73.297  70.520 100.916  0.00  0.00     0.008 A 
ATOM     29  C   UNK d   0      74.632  70.711 100.567  0.00  0.00     0.001 A 
ATOM     30  C   UNK d   0      75.078  71.974 100.183  0.00  0.00     0.000 A 
ATOM     31  C   UNK d   0      74.192  73.047 100.149  0.00  0.00     0.001 A 
ATOM     32  C   UNK d   0      72.856  72.857 100.499  0.00  0.00     0.008 A 
ENDBRANCH  26  27
ENDBRANCH  25  26
ENDBRANCH   6  25
ENDBRANCH   4   6
ENDBRANCH   1   4
TORSDOF 9
ENDMDL
MODEL 13
REMARK VINA RESULT:      -6.5     10.186     14.189
REMARK  9 active torsions:
REMARK  status: ('A' for Active; 'I' for Inactive)
REMARK       I    between atoms: N_2  and  C_14 
REMARK    1  A    between atoms: C_3  and  C_11 
REMARK    2  A    between atoms: C_14  and  C_16 
REMARK    3  A    between atoms: C_16  and  N_18 
REMARK    4  A    between atoms: C_19  and  N_18 
REMARK    5  A    between atoms: C_19  and  C_20 
REMARK    6  A    between atoms: C_19  and  C_28 
REMARK    7  A    between atoms: C_20  and  C_21 
REMARK    8  A    between atoms: C_21  and  C_22 
REMARK    9  A    between atoms: C_28  and  O_30 
ROOT
ATOM      1  O   UNK d   0      74.966  67.991  95.238  0.00  0.00    -0.232 OA
ATOM      2  C   UNK d   0      74.961  67.378  96.414  0.00  0.00    -0.000 C 
ATOM      3  C   UNK d   0      74.896  66.608  97.748  0.00  0.00     0.110 C 
ENDROOT
BRANCH   1   4
ATOM      4  C   UNK d   0      75.567  69.209  95.234  0.00  0.00     0.333 C 
ATOM      5  O   UNK d   0      75.056  70.260  95.599  0.00  0.00    -0.256 OA
BRANCH   4   6
ATOM      6  C   UNK d   0      76.941  69.048  94.655  0.00  0.00     0.187 C 
BRANCH   6   7
ATOM      7  N   UNK d   1      78.040  69.533  95.275  0.00  0.00    -0.232 NA
BRANCH   7   8
ATOM      8  C   UNK d   1      78.414  68.963  96.456  0.00  0.00     0.117 C 
ATOM      9  C   UNK d   1      78.532  67.432  96.629  0.00  0.00     0.057 C 
BRANCH   8  10
ATOM     10  C   UNK d   1      78.994  69.891  97.535  0.00  0.00     0.279 C 
ATOM     11  N   UNK d   1      78.052  70.302  98.500  0.00  0.00    -0.267 N 
ATOM     12  C   UNK d   1      76.694  70.072  98.519  0.00  0.00     0.083 A 
ATOM     13  C   UNK d   1      78.407  71.118  99.626  0.00  0.00     0.132 A 
ATOM     14  C   UNK d   1      75.533  70.374  99.300  0.00  0.00     0.018 A 
ATOM     15  C   UNK d   1      75.870  71.179 100.420  0.00  0.00     0.003 A 
ATOM     16  C   UNK d   1      74.235  69.968  99.068  0.00  0.00     0.002 A 
ATOM     17  C   UNK d   1      77.273  71.469 100.461  0.00  0.00     0.024 A 
ATOM     18  C   UNK d   1      74.909  71.589 101.322  0.00  0.00     0.000 A 
ATOM     19  C   UNK d   1      73.595  71.181 101.089  0.00  0.00     0.000 A 
ATOM     20  C   UNK d   1      73.263  70.383  99.980  0.00  0.00     0.000 A 
ATOM     21  O   UNK d   1      80.175  70.241  97.498  0.00  0.00    -0.265 OA
BRANCH  13  22
ATOM     22  C   UNK d   1      79.804  71.578 100.050  0.00  0.00     0.228 C 
ATOM     23  O   UNK d   1      80.457  70.750 100.755  0.00  0.00    -0.643 OA
ATOM     24  O   UNK d   1      80.062  72.802  99.827  0.00  0.00    -0.643 OA
ENDBRANCH  13  22
ENDBRANCH   8  10
ENDBRANCH   7   8
ENDBRANCH   6   7
BRANCH   6  25
ATOM     25  C   UNK d   0      77.113  68.671  93.292  0.00  0.00    -0.035 C 
BRANCH  25  26
ATOM     26  C   UNK d   0      77.292  68.300  91.815  0.00  0.00    -0.058 C 
BRANCH  26  27
ATOM     27  C   UNK d   0      77.428  67.984  90.434  0.00  0.00     0.042 A 
ATOM     28  C   UNK d   0      78.108  66.832  90.045  0.00  0.00     0.008 A 
ATOM     29  C   UNK d   0      78.242  66.529  88.693  0.00  0.00     0.001 A 
ATOM     30  C   UNK d   0      77.696  67.376  87.730  0.00  0.00     0.000 A 
ATOM     31  C   UNK d   0      77.016  68.528  88.120  0.00  0.00     0.001 A 
ATOM     32  C   UNK d   0      76.883  68.833  89.473  0.00  0.00     0.008 A 
ENDBRANCH  26  27
ENDBRANCH  25  26
ENDBRANCH   6  25
ENDBRANCH   4   6
ENDBRANCH   1   4
TORSDOF 9
ENDMDL
MODEL 14
REMARK VINA RESULT:      -6.5     16.827     20.834
REMARK  9 active torsions:
REMARK  status: ('A' for Active; 'I' for Inactive)
REMARK       I    between atoms: N_2  and  C_14 
REMARK    1  A    between atoms: C_3  and  C_11 
REMARK    2  A    between atoms: C_14  and  C_16 
REMARK    3  A    between atoms: C_16  and  N_18 
REMARK    4  A    between atoms: C_19  and  N_18 
REMARK    5  A    between atoms: C_19  and  C_20 
REMARK    6  A    between atoms: C_19  and  C_28 
REMARK    7  A    between atoms: C_20  and  C_21 
REMARK    8  A    between atoms: C_21  and  C_22 
REMARK    9  A    between atoms: C_28  and  O_30 
ROOT
ATOM      1  O   UNK d   0      62.418  87.817  89.479  0.00  0.00    -0.232 OA
ATOM      2  C   UNK d   0      63.127  88.703  90.165  0.00  0.00    -0.000 C 
ATOM      3  C   UNK d   0      64.024  89.698  90.927  0.00  0.00     0.110 C 
ENDROOT
BRANCH   1   4
ATOM      4  C   UNK d   0      61.118  87.713  89.857  0.00  0.00     0.333 C 
ATOM      5  O   UNK d   0      60.413  88.633  90.253  0.00  0.00    -0.256 OA
BRANCH   4   6
ATOM      6  C   UNK d   0      60.716  86.272  89.756  0.00  0.00     0.187 C 
BRANCH   6   7
ATOM      7  N   UNK d   1      61.608  85.268  89.917  0.00  0.00    -0.232 NA
BRANCH   7   8
ATOM      8  C   UNK d   1      61.956  84.917  91.187  0.00  0.00     0.117 C 
ATOM      9  C   UNK d   1      61.067  84.007  92.063  0.00  0.00     0.057 C 
BRANCH   8  10
ATOM     10  C   UNK d   1      63.397  85.217  91.632  0.00  0.00     0.279 C 
ATOM     11  N   UNK d   1      63.493  86.222  92.615  0.00  0.00    -0.267 N 
ATOM     12  C   UNK d   1      62.491  87.021  93.120  0.00  0.00     0.083 A 
ATOM     13  C   UNK d   1      64.743  86.604  93.208  0.00  0.00     0.132 A 
ATOM     14  C   UNK d   1      62.295  88.094  94.046  0.00  0.00     0.018 A 
ATOM     15  C   UNK d   1      63.524  88.481  94.643  0.00  0.00     0.003 A 
ATOM     16  C   UNK d   1      61.107  88.714  94.374  0.00  0.00     0.002 A 
ATOM     17  C   UNK d   1      64.620  87.695  94.156  0.00  0.00     0.024 A 
ATOM     18  C   UNK d   1      63.578  89.495  95.578  0.00  0.00     0.000 A 
ATOM     19  C   UNK d   1      62.378  90.124  95.911  0.00  0.00     0.000 A 
ATOM     20  C   UNK d   1      61.162  89.740  95.319  0.00  0.00     0.000 A 
ATOM     21  O   UNK d   1      64.351  84.627  91.120  0.00  0.00    -0.265 OA
BRANCH  13  22
ATOM     22  C   UNK d   1      66.118  85.963  93.000  0.00  0.00     0.228 C 
ATOM     23  O   UNK d   1      66.804  86.447  92.048  0.00  0.00    -0.643 OA
ATOM     24  O   UNK d   1      66.323  84.897  93.660  0.00  0.00    -0.643 OA
ENDBRANCH  13  22
ENDBRANCH   8  10
ENDBRANCH   7   8
ENDBRANCH   6   7
BRANCH   6  25
ATOM     25  C   UNK d   0      59.468  85.906  89.176  0.00  0.00    -0.035 C 
BRANCH  25  26
ATOM     26  C   UNK d   0      58.116  85.549  88.546  0.00  0.00    -0.058 C 
BRANCH  26  27
ATOM     27  C   UNK d   0      56.874  85.178  87.958  0.00  0.00     0.042 A 
ATOM     28  C   UNK d   0      56.564  83.833  87.771  0.00  0.00     0.008 A 
ATOM     29  C   UNK d   0      55.349  83.475  87.192  0.00  0.00     0.001 A 
ATOM     30  C   UNK d   0      54.445  84.462  86.801  0.00  0.00     0.000 A 
ATOM     31  C   UNK d   0      54.756  85.806  86.989  0.00  0.00     0.001 A 
ATOM     32  C   UNK d   0      55.972  86.165  87.567  0.00  0.00     0.008 A 
ENDBRANCH  26  27
ENDBRANCH  25  26
ENDBRANCH   6  25
ENDBRANCH   4   6
ENDBRANCH   1   4
TORSDOF 9
ENDMDL
MODEL 15
REMARK VINA RESULT:      -6.5     16.264     19.065
REMARK  9 active torsions:
REMARK  status: ('A' for Active; 'I' for Inactive)
REMARK       I    between atoms: N_2  and  C_14 
REMARK    1  A    between atoms: C_3  and  C_11 
REMARK    2  A    between atoms: C_14  and  C_16 
REMARK    3  A    between atoms: C_16  and  N_18 
REMARK    4  A    between atoms: C_19  and  N_18 
REMARK    5  A    between atoms: C_19  and  C_20 
REMARK    6  A    between atoms: C_19  and  C_28 
REMARK    7  A    between atoms: C_20  and  C_21 
REMARK    8  A    between atoms: C_21  and  C_22 
REMARK    9  A    between atoms: C_28  and  O_30 
ROOT
ATOM      1  O   UNK d   0      64.943  70.642 100.425  0.00  0.00    -0.232 OA
ATOM      2  C   UNK d   0      65.277  71.282 101.538  0.00  0.00    -0.000 C 
ATOM      3  C   UNK d   0      65.595  71.990 102.870  0.00  0.00     0.110 C 
ENDROOT
BRANCH   1   4
ATOM      4  C   UNK d   0      65.599  71.058  99.311  0.00  0.00     0.333 C 
ATOM      5  O   UNK d   0      66.758  71.450  99.268  0.00  0.00    -0.256 OA
BRANCH   4   6
ATOM      6  C   UNK d   0      64.640  71.006  98.159  0.00  0.00     0.187 C 
BRANCH   6   7
ATOM      7  N   UNK d   1      65.060  71.062  96.875  0.00  0.00    -0.232 NA
BRANCH   7   8
ATOM      8  C   UNK d   1      64.981  72.257  96.226  0.00  0.00     0.117 C 
ATOM      9  C   UNK d   1      65.321  73.595  96.921  0.00  0.00     0.057 C 
BRANCH   8  10
ATOM     10  C   UNK d   1      64.819  72.221  94.698  0.00  0.00     0.279 C 
ATOM     11  N   UNK d   1      63.647  72.852  94.234  0.00  0.00    -0.267 N 
ATOM     12  C   UNK d   1      62.608  73.373  94.974  0.00  0.00     0.083 A 
ATOM     13  C   UNK d   1      63.342  72.981  92.837  0.00  0.00     0.132 A 
ATOM     14  C   UNK d   1      61.337  74.008  94.798  0.00  0.00     0.018 A 
ATOM     15  C   UNK d   1      61.023  74.145  93.421  0.00  0.00     0.003 A 
ATOM     16  C   UNK d   1      60.482  74.460  95.781  0.00  0.00     0.002 A 
ATOM     17  C   UNK d   1      62.060  73.613  92.585  0.00  0.00     0.024 A 
ATOM     18  C   UNK d   1      59.847  74.739  93.010  0.00  0.00     0.000 A 
ATOM     19  C   UNK d   1      58.979  75.196  94.002  0.00  0.00     0.000 A 
ATOM     20  C   UNK d   1      59.291  75.059  95.366  0.00  0.00     0.000 A 
ATOM     21  O   UNK d   1      65.650  71.652  93.989  0.00  0.00    -0.265 OA
BRANCH  13  22
ATOM     22  C   UNK d   1      64.220  72.599  91.644  0.00  0.00     0.228 C 
ATOM     23  O   UNK d   1      64.931  73.537  91.170  0.00  0.00    -0.643 OA
ATOM     24  O   UNK d   1      63.984  71.456  91.142  0.00  0.00    -0.643 OA
ENDBRANCH  13  22
ENDBRANCH   8  10
ENDBRANCH   7   8
ENDBRANCH   6   7
BRANCH   6  25
ATOM     25  C   UNK d   0      63.247  71.221  98.366  0.00  0.00    -0.035 C 
BRANCH  25  26
ATOM     26  C   UNK d   0      61.742  71.415  98.591  0.00  0.00    -0.058 C 
BRANCH  26  27
ATOM     27  C   UNK d   0      60.339  71.568  98.770  0.00  0.00     0.042 A 
ATOM     28  C   UNK d   0      59.728  72.788  98.493  0.00  0.00     0.008 A 
ATOM     29  C   UNK d   0      58.355  72.934  98.672  0.00  0.00     0.001 A 
ATOM     30  C   UNK d   0      57.593  71.859  99.128  0.00  0.00     0.000 A 
ATOM     31  C   UNK d   0      58.205  70.639  99.405  0.00  0.00     0.001 A 
ATOM     32  C   UNK d   0      59.579  70.493  99.226  0.00  0.00     0.008 A 
ENDBRANCH  26  27
ENDBRANCH  25  26
ENDBRANCH   6  25
ENDBRANCH   4   6
ENDBRANCH   1   4
TORSDOF 9
ENDMDL
MODEL 16
REMARK VINA RESULT:      -6.4     16.563     20.297
REMARK  9 active torsions:
REMARK  status: ('A' for Active; 'I' for Inactive)
REMARK       I    between atoms: N_2  and  C_14 
REMARK    1  A    between atoms: C_3  and  C_11 
REMARK    2  A    between atoms: C_14  and  C_16 
REMARK    3  A    between atoms: C_16  and  N_18 
REMARK    4  A    between atoms: C_19  and  N_18 
REMARK    5  A    between atoms: C_19  and  C_20 
REMARK    6  A    between atoms: C_19  and  C_28 
REMARK    7  A    between atoms: C_20  and  C_21 
REMARK    8  A    between atoms: C_21  and  C_22 
REMARK    9  A    between atoms: C_28  and  O_30 
ROOT
ATOM      1  O   UNK d   0      59.874  88.397  91.266  0.00  0.00    -0.232 OA
ATOM      2  C   UNK d   0      59.996  88.137  92.561  0.00  0.00    -0.000 C 
ATOM      3  C   UNK d   0      60.067  87.886  94.080  0.00  0.00     0.110 C 
ENDROOT
BRANCH   1   4
ATOM      4  C   UNK d   0      60.942  88.033  90.510  0.00  0.00     0.333 C 
ATOM      5  O   UNK d   0      61.842  88.776  90.139  0.00  0.00    -0.256 OA
BRANCH   4   6
ATOM      6  C   UNK d   0      60.796  86.581  90.165  0.00  0.00     0.187 C 
BRANCH   6   7
ATOM      7  N   UNK d   1      61.848  85.732  90.180  0.00  0.00    -0.232 NA
BRANCH   7   8
ATOM      8  C   UNK d   1      62.395  85.411  91.386  0.00  0.00     0.117 C 
ATOM      9  C   UNK d   1      61.557  84.808  92.536  0.00  0.00     0.057 C 
BRANCH   8  10
ATOM     10  C   UNK d   1      63.929  85.396  91.484  0.00  0.00     0.279 C 
ATOM     11  N   UNK d   1      64.469  86.515  92.148  0.00  0.00    -0.267 N 
ATOM     12  C   UNK d   1      63.812  87.640  92.598  0.00  0.00     0.083 A 
ATOM     13  C   UNK d   1      65.875  86.660  92.398  0.00  0.00     0.132 A 
ATOM     14  C   UNK d   1      64.078  88.891  93.240  0.00  0.00     0.018 A 
ATOM     15  C   UNK d   1      65.466  89.046  93.497  0.00  0.00     0.003 A 
ATOM     16  C   UNK d   1      63.165  89.860  93.600  0.00  0.00     0.002 A 
ATOM     17  C   UNK d   1      66.218  87.912  93.045  0.00  0.00     0.024 A 
ATOM     18  C   UNK d   1      65.957  90.176  94.120  0.00  0.00     0.000 A 
ATOM     19  C   UNK d   1      65.036  91.158  94.484  0.00  0.00     0.000 A 
ATOM     20  C   UNK d   1      63.662  91.003  94.229  0.00  0.00     0.000 A 
ATOM     21  O   UNK d   1      64.584  84.480  90.982  0.00  0.00    -0.265 OA
BRANCH  13  22
ATOM     22  C   UNK d   1      66.988  85.644  92.126  0.00  0.00     0.228 C 
ATOM     23  O   UNK d   1      67.118  84.734  93.001  0.00  0.00    -0.643 OA
ATOM     24  O   UNK d   1      67.776  85.946  91.176  0.00  0.00    -0.643 OA
ENDBRANCH  13  22
ENDBRANCH   8  10
ENDBRANCH   7   8
ENDBRANCH   6   7
BRANCH   6  25
ATOM     25  C   UNK d   0      59.626  86.107  89.503  0.00  0.00    -0.035 C 
BRANCH  25  26
ATOM     26  C   UNK d   0      58.375  85.563  88.803  0.00  0.00    -0.058 C 
BRANCH  26  27
ATOM     27  C   UNK d   0      57.197  85.096  88.155  0.00  0.00     0.042 A 
ATOM     28  C   UNK d   0      56.247  86.004  87.694  0.00  0.00     0.008 A 
ATOM     29  C   UNK d   0      55.094  85.541  87.065  0.00  0.00     0.001 A 
ATOM     30  C   UNK d   0      54.892  84.173  86.896  0.00  0.00     0.000 A 
ATOM     31  C   UNK d   0      55.843  83.265  87.357  0.00  0.00     0.001 A 
ATOM     32  C   UNK d   0      56.997  83.727  87.988  0.00  0.00     0.008 A 
ENDBRANCH  26  27
ENDBRANCH  25  26
ENDBRANCH   6  25
ENDBRANCH   4   6
ENDBRANCH   1   4
TORSDOF 9
ENDMDL
MODEL 17
REMARK VINA RESULT:      -6.3     16.025     19.439
REMARK  9 active torsions:
REMARK  status: ('A' for Active; 'I' for Inactive)
REMARK       I    between atoms: N_2  and  C_14 
REMARK    1  A    between atoms: C_3  and  C_11 
REMARK    2  A    between atoms: C_14  and  C_16 
REMARK    3  A    between atoms: C_16  and  N_18 
REMARK    4  A    between atoms: C_19  and  N_18 
REMARK    5  A    between atoms: C_19  and  C_20 
REMARK    6  A    between atoms: C_19  and  C_28 
REMARK    7  A    between atoms: C_20  and  C_21 
REMARK    8  A    between atoms: C_21  and  C_22 
REMARK    9  A    between atoms: C_28  and  O_30 
ROOT
ATOM      1  O   UNK d   0      61.880  84.605  92.651  0.00  0.00    -0.232 OA
ATOM      2  C   UNK d   0      62.826  84.626  93.579  0.00  0.00    -0.000 C 
ATOM      3  C   UNK d   0      63.863  84.636  94.720  0.00  0.00     0.110 C 
ENDROOT
BRANCH   1   4
ATOM      4  C   UNK d   0      62.273  85.047  91.428  0.00  0.00     0.333 C 
ATOM      5  O   UNK d   0      63.283  84.697  90.832  0.00  0.00    -0.256 OA
BRANCH   4   6
ATOM      6  C   UNK d   0      61.285  86.077  90.966  0.00  0.00     0.187 C 
BRANCH   6   7
ATOM      7  N   UNK d   1      61.241  87.318  91.502  0.00  0.00    -0.232 NA
BRANCH   7   8
ATOM      8  C   UNK d   1      62.231  88.194  91.170  0.00  0.00     0.117 C 
ATOM      9  C   UNK d   1      62.578  88.526  89.701  0.00  0.00     0.057 C 
BRANCH   8  10
ATOM     10  C   UNK d   1      62.808  89.066  92.296  0.00  0.00     0.279 C 
ATOM     11  N   UNK d   1      64.082  88.656  92.739  0.00  0.00    -0.267 N 
ATOM     12  C   UNK d   1      64.791  87.533  92.374  0.00  0.00     0.083 A 
ATOM     13  C   UNK d   1      64.819  89.374  93.739  0.00  0.00     0.132 A 
ATOM     14  C   UNK d   1      66.023  86.863  92.662  0.00  0.00     0.018 A 
ATOM     15  C   UNK d   1      66.765  87.565  93.648  0.00  0.00     0.003 A 
ATOM     16  C   UNK d   1      66.498  85.699  92.094  0.00  0.00     0.002 A 
ATOM     17  C   UNK d   1      66.081  88.746  94.085  0.00  0.00     0.024 A 
ATOM     18  C   UNK d   1      67.995  87.108  94.078  0.00  0.00     0.000 A 
ATOM     19  C   UNK d   1      68.477  85.930  93.507  0.00  0.00     0.000 A 
ATOM     20  C   UNK d   1      67.741  85.237  92.530  0.00  0.00     0.000 A 
ATOM     21  O   UNK d   1      62.163  90.008  92.759  0.00  0.00    -0.265 OA
BRANCH  13  22
ATOM     22  C   UNK d   1      64.457  90.708  94.398  0.00  0.00     0.228 C 
ATOM     23  O   UNK d   1      64.829  91.744  93.767  0.00  0.00    -0.643 OA
ATOM     24  O   UNK d   1      64.015  90.622  95.586  0.00  0.00    -0.643 OA
ENDBRANCH  13  22
ENDBRANCH   8  10
ENDBRANCH   7   8
ENDBRANCH   6   7
BRANCH   6  25
ATOM     25  C   UNK d   0      60.156  85.698  90.183  0.00  0.00    -0.035 C 
BRANCH  25  26
ATOM     26  C   UNK d   0      58.921  85.292  89.372  0.00  0.00    -0.058 C 
BRANCH  26  27
ATOM     27  C   UNK d   0      57.766  84.884  88.647  0.00  0.00     0.042 A 
ATOM     28  C   UNK d   0      57.412  83.538  88.597  0.00  0.00     0.008 A 
ATOM     29  C   UNK d   0      56.283  83.143  87.883  0.00  0.00     0.001 A 
ATOM     30  C   UNK d   0      55.510  84.094  87.220  0.00  0.00     0.000 A 
ATOM     31  C   UNK d   0      55.864  85.440  87.270  0.00  0.00     0.001 A 
ATOM     32  C   UNK d   0      56.994  85.835  87.984  0.00  0.00     0.008 A 
ENDBRANCH  26  27
ENDBRANCH  25  26
ENDBRANCH   6  25
ENDBRANCH   4   6
ENDBRANCH   1   4
TORSDOF 9
ENDMDL
MODEL 18
REMARK VINA RESULT:      -6.3     15.390     19.095
REMARK  9 active torsions:
REMARK  status: ('A' for Active; 'I' for Inactive)
REMARK       I    between atoms: N_2  and  C_14 
REMARK    1  A    between atoms: C_3  and  C_11 
REMARK    2  A    between atoms: C_14  and  C_16 
REMARK    3  A    between atoms: C_16  and  N_18 
REMARK    4  A    between atoms: C_19  and  N_18 
REMARK    5  A    between atoms: C_19  and  C_20 
REMARK    6  A    between atoms: C_19  and  C_28 
REMARK    7  A    between atoms: C_20  and  C_21 
REMARK    8  A    between atoms: C_21  and  C_22 
REMARK    9  A    between atoms: C_28  and  O_30 
ROOT
ATOM      1  O   UNK d   0      61.212  86.630  94.411  0.00  0.00    -0.232 OA
ATOM      2  C   UNK d   0      60.904  86.137  95.603  0.00  0.00    -0.000 C 
ATOM      3  C   UNK d   0      60.499  85.502  96.948  0.00  0.00     0.110 C 
ENDROOT
BRANCH   1   4
ATOM      4  C   UNK d   0      61.761  87.872  94.433  0.00  0.00     0.333 C 
ATOM      5  O   UNK d   0      62.321  88.389  95.392  0.00  0.00    -0.256 OA
BRANCH   4   6
ATOM      6  C   UNK d   0      61.514  88.515  93.101  0.00  0.00     0.187 C 
BRANCH   6   7
ATOM      7  N   UNK d   1      61.967  89.755  92.810  0.00  0.00    -0.232 NA
BRANCH   7   8
ATOM      8  C   UNK d   1      63.254  89.881  92.378  0.00  0.00     0.117 C 
ATOM      9  C   UNK d   1      63.656  89.642  90.905  0.00  0.00     0.057 C 
BRANCH   8  10
ATOM     10  C   UNK d   1      64.257  90.548  93.334  0.00  0.00     0.279 C 
ATOM     11  N   UNK d   1      65.239  89.669  93.833  0.00  0.00    -0.267 N 
ATOM     12  C   UNK d   1      65.330  88.305  93.663  0.00  0.00     0.083 A 
ATOM     13  C   UNK d   1      66.304  90.109  94.690  0.00  0.00     0.132 A 
ATOM     14  C   UNK d   1      66.146  87.196  94.054  0.00  0.00     0.018 A 
ATOM     15  C   UNK d   1      67.205  87.616  94.899  0.00  0.00     0.003 A 
ATOM     16  C   UNK d   1      65.993  85.873  93.692  0.00  0.00     0.002 A 
ATOM     17  C   UNK d   1      67.169  89.031  95.130  0.00  0.00     0.024 A 
ATOM     18  C   UNK d   1      68.127  86.716  95.395  0.00  0.00     0.000 A 
ATOM     19  C   UNK d   1      67.974  85.378  95.032  0.00  0.00     0.000 A 
ATOM     20  C   UNK d   1      66.924  84.962  94.194  0.00  0.00     0.000 A 
ATOM     21  O   UNK d   1      64.149  91.739  93.631  0.00  0.00    -0.265 OA
BRANCH  13  22
ATOM     22  C   UNK d   1      66.641  91.542  95.111  0.00  0.00     0.228 C 
ATOM     23  O   UNK d   1      67.352  92.196  94.288  0.00  0.00    -0.643 OA
ATOM     24  O   UNK d   1      66.350  91.836  96.312  0.00  0.00    -0.643 OA
ENDBRANCH  13  22
ENDBRANCH   8  10
ENDBRANCH   7   8
ENDBRANCH   6   7
BRANCH   6  25
ATOM     25  C   UNK d   0      60.529  87.990  92.215  0.00  0.00    -0.035 C 
BRANCH  25  26
ATOM     26  C   UNK d   0      59.493  87.396  91.254  0.00  0.00    -0.058 C 
BRANCH  26  27
ATOM     27  C   UNK d   0      58.523  86.882  90.348  0.00  0.00     0.042 A 
ATOM     28  C   UNK d   0      57.193  87.283  90.446  0.00  0.00     0.008 A 
ATOM     29  C   UNK d   0      56.248  86.775  89.559  0.00  0.00     0.001 A 
ATOM     30  C   UNK d   0      56.632  85.867  88.574  0.00  0.00     0.000 A 
ATOM     31  C   UNK d   0      57.963  85.466  88.476  0.00  0.00     0.001 A 
ATOM     32  C   UNK d   0      58.909  85.973  89.364  0.00  0.00     0.008 A 
ENDBRANCH  26  27
ENDBRANCH  25  26
ENDBRANCH   6  25
ENDBRANCH   4   6
ENDBRANCH   1   4
TORSDOF 9
ENDMDL
MODEL 19
REMARK VINA RESULT:      -6.2     14.879     18.711
REMARK  9 active torsions:
REMARK  status: ('A' for Active; 'I' for Inactive)
REMARK       I    between atoms: N_2  and  C_14 
REMARK    1  A    between atoms: C_3  and  C_11 
REMARK    2  A    between atoms: C_14  and  C_16 
REMARK    3  A    between atoms: C_16  and  N_18 
REMARK    4  A    between atoms: C_19  and  N_18 
REMARK    5  A    between atoms: C_19  and  C_20 
REMARK    6  A    between atoms: C_19  and  C_28 
REMARK    7  A    between atoms: C_20  and  C_21 
REMARK    8  A    between atoms: C_21  and  C_22 
REMARK    9  A    between atoms: C_28  and  O_30 
ROOT
ATOM      1  O   UNK d   0      65.419  90.197  94.876  0.00  0.00    -0.232 OA
ATOM      2  C   UNK d   0      64.971  90.795  95.972  0.00  0.00    -0.000 C 
ATOM      3  C   UNK d   0      64.472  91.416  97.291  0.00  0.00     0.110 C 
ENDROOT
BRANCH   1   4
ATOM      4  C   UNK d   0      65.069  90.806  93.713  0.00  0.00     0.333 C 
ATOM      5  O   UNK d   0      65.220  91.993  93.454  0.00  0.00    -0.256 OA
BRANCH   4   6
ATOM      6  C   UNK d   0      64.419  89.783  92.829  0.00  0.00     0.187 C 
BRANCH   6   7
ATOM      7  N   UNK d   1      63.176  89.959  92.326  0.00  0.00    -0.232 NA
BRANCH   7   8
ATOM      8  C   UNK d   1      62.216  89.049  92.656  0.00  0.00     0.117 C 
ATOM      9  C   UNK d   1      61.524  89.046  94.038  0.00  0.00     0.057 C 
BRANCH   8  10
ATOM     10  C   UNK d   1      61.631  88.197  91.518  0.00  0.00     0.279 C 
ATOM     11  N   UNK d   1      61.698  86.809  91.753  0.00  0.00    -0.267 N 
ATOM     12  C   UNK d   1      62.313  86.148  92.794  0.00  0.00     0.083 A 
ATOM     13  C   UNK d   1      61.149  85.845  90.842  0.00  0.00     0.132 A 
ATOM     14  C   UNK d   1      62.568  84.819  93.261  0.00  0.00     0.018 A 
ATOM     15  C   UNK d   1      62.028  83.855  92.371  0.00  0.00     0.003 A 
ATOM     16  C   UNK d   1      63.232  84.447  94.411  0.00  0.00     0.002 A 
ATOM     17  C   UNK d   1      61.377  84.472  91.252  0.00  0.00     0.024 A 
ATOM     18  C   UNK d   1      62.146  82.502  92.622  0.00  0.00     0.000 A 
ATOM     19  C   UNK d   1      62.818  82.123  93.784  0.00  0.00     0.000 A 
ATOM     20  C   UNK d   1      63.353  83.079  94.665  0.00  0.00     0.000 A 
ATOM     21  O   UNK d   1      61.185  88.727  90.499  0.00  0.00    -0.265 OA
BRANCH  13  22
ATOM     22  C   UNK d   1      60.328  86.108  89.577  0.00  0.00     0.228 C 
ATOM     23  O   UNK d   1      61.005  86.314  88.524  0.00  0.00    -0.643 OA
ATOM     24  O   UNK d   1      59.086  86.295  89.767  0.00  0.00    -0.643 OA
ENDBRANCH  13  22
ENDBRANCH   8  10
ENDBRANCH   7   8
ENDBRANCH   6   7
BRANCH   6  25
ATOM     25  C   UNK d   0      64.940  88.460  92.747  0.00  0.00    -0.035 C 
BRANCH  25  26
ATOM     26  C   UNK d   0      65.502  87.039  92.621  0.00  0.00    -0.058 C 
BRANCH  26  27
ATOM     27  C   UNK d   0      65.987  85.705  92.510  0.00  0.00     0.042 A 
ATOM     28  C   UNK d   0      65.568  84.895  91.458  0.00  0.00     0.008 A 
ATOM     29  C   UNK d   0      66.042  83.590  91.356  0.00  0.00     0.001 A 
ATOM     30  C   UNK d   0      66.934  83.095  92.305  0.00  0.00     0.000 A 
ATOM     31  C   UNK d   0      67.352  83.906  93.358  0.00  0.00     0.001 A 
ATOM     32  C   UNK d   0      66.878  85.212  93.461  0.00  0.00     0.008 A 
ENDBRANCH  26  27
ENDBRANCH  25  26
ENDBRANCH   6  25
ENDBRANCH   4   6
ENDBRANCH   1   4
TORSDOF 9
ENDMDL
MODEL 20
REMARK VINA RESULT:      -6.2     13.994     17.781
REMARK  9 active torsions:
REMARK  status: ('A' for Active; 'I' for Inactive)
REMARK       I    between atoms: N_2  and  C_14 
REMARK    1  A    between atoms: C_3  and  C_11 
REMARK    2  A    between atoms: C_14  and  C_16 
REMARK    3  A    between atoms: C_16  and  N_18 
REMARK    4  A    between atoms: C_19  and  N_18 
REMARK    5  A    between atoms: C_19  and  C_20 
REMARK    6  A    between atoms: C_19  and  C_28 
REMARK    7  A    between atoms: C_20  and  C_21 
REMARK    8  A    between atoms: C_21  and  C_22 
REMARK    9  A    between atoms: C_28  and  O_30 
ROOT
ATOM      1  O   UNK d   0      65.673  90.455  95.140  0.00  0.00    -0.232 OA
ATOM      2  C   UNK d   0      65.071  91.006  96.185  0.00  0.00    -0.000 C 
ATOM      3  C   UNK d   0      64.412  91.586  97.452  0.00  0.00     0.110 C 
ENDROOT
BRANCH   1   4
ATOM      4  C   UNK d   0      65.178  90.836  93.933  0.00  0.00     0.333 C 
ATOM      5  O   UNK d   0      64.812  91.965  93.634  0.00  0.00    -0.256 OA
BRANCH   4   6
ATOM      6  C   UNK d   0      65.108  89.622  93.055  0.00  0.00     0.187 C 
BRANCH   6   7
ATOM      7  N   UNK d   1      63.987  89.296  92.372  0.00  0.00    -0.232 NA
BRANCH   7   8
ATOM      8  C   UNK d   1      63.085  88.472  92.977  0.00  0.00     0.117 C 
ATOM      9  C   UNK d   1      62.859  88.479  94.505  0.00  0.00     0.057 C 
BRANCH   8  10
ATOM     10  C   UNK d   1      62.088  87.732  92.070  0.00  0.00     0.279 C 
ATOM     11  N   UNK d   1      62.477  86.415  91.752  0.00  0.00    -0.267 N 
ATOM     12  C   UNK d   1      63.662  85.779  92.051  0.00  0.00     0.083 A 
ATOM     13  C   UNK d   1      61.655  85.536  90.971  0.00  0.00     0.132 A 
ATOM     14  C   UNK d   1      64.327  84.528  91.844  0.00  0.00     0.018 A 
ATOM     15  C   UNK d   1      63.523  83.646  91.074  0.00  0.00     0.003 A 
ATOM     16  C   UNK d   1      65.572  84.153  92.304  0.00  0.00     0.002 A 
ATOM     17  C   UNK d   1      62.272  84.247  90.716  0.00  0.00     0.024 A 
ATOM     18  C   UNK d   1      63.958  82.375  90.756  0.00  0.00     0.000 A 
ATOM     19  C   UNK d   1      65.217  81.994  91.218  0.00  0.00     0.000 A 
ATOM     20  C   UNK d   1      66.012  82.868  91.981  0.00  0.00     0.000 A 
ATOM     21  O   UNK d   1      61.072  88.294  91.660  0.00  0.00    -0.265 OA
BRANCH  13  22
ATOM     22  C   UNK d   1      60.233  85.784  90.460  0.00  0.00     0.228 C 
ATOM     23  O   UNK d   1      59.304  85.432  91.249  0.00  0.00    -0.643 OA
ATOM     24  O   UNK d   1      60.148  86.117  89.237  0.00  0.00    -0.643 OA
ENDBRANCH  13  22
ENDBRANCH   8  10
ENDBRANCH   7   8
ENDBRANCH   6   7
BRANCH   6  25
ATOM     25  C   UNK d   0      66.094  88.597  93.154  0.00  0.00    -0.035 C 
BRANCH  25  26
ATOM     26  C   UNK d   0      67.133  87.479  93.287  0.00  0.00    -0.058 C 
BRANCH  26  27
ATOM     27  C   UNK d   0      68.122  86.459  93.382  0.00  0.00     0.042 A 
ATOM     28  C   UNK d   0      69.108  86.349  92.405  0.00  0.00     0.008 A 
ATOM     29  C   UNK d   0      70.071  85.347  92.501  0.00  0.00     0.001 A 
ATOM     30  C   UNK d   0      70.047  84.457  93.573  0.00  0.00     0.000 A 
ATOM     31  C   UNK d   0      69.061  84.568  94.550  0.00  0.00     0.001 A 
ATOM     32  C   UNK d   0      68.097  85.569  94.455  0.00  0.00     0.008 A 
ENDBRANCH  26  27
ENDBRANCH  25  26
ENDBRANCH   6  25
ENDBRANCH   4   6
ENDBRANCH   1   4
TORSDOF 9
ENDMDL
