@<TRIPOS>MOLECULE
xxxx_ligand_n.pdb
 36 39 0 0 0
SMALL
GASTEIGER

@<TRIPOS>ATOM
      1  C         69.8760   78.3980   91.4130 C.ar    1  UNL1        0.1949
      2  C         70.9260   79.2670   91.0760 C.ar    1  UNL1        0.0631
      3  C         71.9520   78.8610   90.1930 C.ar    1  UNL1        0.1407
      4  C         72.9120   81.0730   90.2100 C.3     1  UNL1        0.2445
      5  C         72.0730   81.8230   89.1930 C.3     1  UNL1        0.0575
      6  C         74.3070   81.6220   90.2010 C.2     1  UNL1        0.3009
      7  C         71.9100   77.5910   89.6370 C.ar    1  UNL1        0.0406
      8  C         68.0420   76.3190   92.0810 C.2     1  UNL1        0.3788
      9  C         69.8270   77.1340   90.8290 C.ar    1  UNL1        0.2043
     10  C         70.8460   76.7380   89.9540 C.ar    1  UNL1        0.0490
     11  C         67.2370   75.1890   92.5340 C.3     1  UNL1        0.2255
     12  C         66.3580   75.2980   93.5530 C.3     1  UNL1        0.2140
     13  C         67.4190   73.8830   91.8610 C.2     1  UNL1        0.2588
     14  C         67.0850   71.4770   91.9650 C.3     1  UNL1        0.1192
     15  C         66.2160   71.3780   90.7150 C.3     1  UNL1        0.0237
     16  C         64.7130   71.4650   91.0370 C.3     1  UNL1        0.0018
     17  C         63.8320   71.4450   89.7930 C.3     1  UNL1        0.0001
     18  C         64.3070   70.3260   91.9840 C.3     1  UNL1        0.0001
     19  C         65.8570   74.0500   94.1460 C.2     1  UNL1        0.1137
     20  C         65.0700   74.2030   95.3650 C.ar    1  UNL1        0.0470
     21  C         64.4860   75.3310   95.8760 C.ar    1  UNL1        0.0083
     22  C         63.9680   73.7540   97.4910 C.ar    1  UNL1        0.0355
     23  C         63.8750   75.0520   97.0780 C.ar    1  UNL1        0.0075
     24  N         75.2320   80.7290   89.7600 N.am    1  UNL1       -0.0846
     25  N         67.8090   77.4890   92.8080 N.2     1  UNL1        0.0957
     26  N         68.8560   76.1930   91.0760 N.pl3   1  UNL1       -0.0061
     27  N         66.8530   72.7930   92.5080 N.am    1  UNL1       -0.1805
     28  N         66.0880   72.8740   93.6440 N.2     1  UNL1       -0.1771
     29  O         67.6480   79.7450   91.7610 O.2     1  UNL1       -0.1250
     30  O         69.0860   79.4200   93.7580 O.2     1  UNL1       -0.1250
     31  O         72.9970   79.6930   89.8560 O.3     1  UNL1       -0.4698
     32  O         74.5900   82.7500   90.5580 O.2     1  UNL1       -0.2677
     33  O         65.8240   76.4830   93.9920 O.3     1  UNL1       -0.2154
     34  O         68.1370   73.8080   90.8500 O.2     1  UNL1       -0.2724
     35  S         68.5780   78.9270   92.5100 S.O2    1  UNL1        0.1834
     36  S         64.8420   72.8320   96.3620 S.2     1  UNL1       -0.0851
@<TRIPOS>BOND
     1     5     4    1
     2     7    10   ar
     3     7     3   ar
     4    24     6   am
     5    17    16    1
     6    31     3    1
     7    31     4    1
     8    10     9   ar
     9     3     2   ar
    10     6     4    1
    11     6    32    2
    12    15    16    1
    13    15    14    1
    14     9    26    1
    15     9     1   ar
    16    34    13    2
    17    16    18    1
    18     2     1   ar
    19    26     8    1
    20     1    35    1
    21    29    35    2
    22    13    27   am
    23    13    11    1
    24    14    27    1
    25     8    11    1
    26     8    25    2
    27    27    28    1
    28    35    25    1
    29    35    30    2
    30    11    12    1
    31    12    33    1
    32    12    19    1
    33    28    19    2
    34    19    20    1
    35    20    21   ar
    36    20    36   ar
    37    21    23   ar
    38    36    22   ar
    39    23    22   ar
